Circuit: * C:\Users\dvone\Desktop\Engineering 3.2\E-Design 344\GitRepoe\E344\LTSpice\Assignment 2\21785155.asc

Early termination of direct N-R iteration.
Direct Newton iteration failed to find .op point.  (Use ".option noopiter" to skip.)
Starting Gmin stepping
Gmin = 10
vernier = 0.5
vernier = 0.25
vernier = 0.125
Gmin = 5.5165
vernier = 0.0625
vernier = 0.03125
vernier = 0.015625
vernier = 0.0078125
Gmin = 5.49501
vernier = 0.00390625
vernier = 0.00195313
vernier = 0.000976563
vernier = 0.000488281
Gmin = 5.50104
Gmin = 0
Gmin stepping failed

Starting source stepping with srcstepmethod=0
Source Step = 3.0303%
Source Step = 33.3333%
Source Step = 63.6364%
Source Step = 93.9394%
Source stepping succeeded in finding the operating point.

Heightened Def Con from 0.0529186 to 0.0529186
Heightened Def Con from 1.0369 to 1.0369
Heightened Def Con from 1.03704 to 1.03704
Heightened Def Con from 1.03706 to 1.03706
Heightened Def Con from 6.0641 to 6.0641
Heightened Def Con from 6.06423 to 6.06423
Heightened Def Con from 6.06426 to 6.06426
Heightened Def Con from 7.0535 to 7.0535
Heightened Def Con from 8.02675 to 8.02675
Heightened Def Con from 8.0268 to 8.0268
Heightened Def Con from 8.02682 to 8.02682
Heightened Def Con from 10.0608 to 10.0608
Heightened Def Con from 11.0443 to 11.0443
Heightened Def Con from 11.0446 to 11.0446
Heightened Def Con from 11.0446 to 11.0446
Heightened Def Con from 12.0289 to 12.0289
Heightened Def Con from 12.029 to 12.029
Heightened Def Con from 12.6031 to 12.6031
Heightened Def Con from 15.0567 to 15.0567
Heightened Def Con from 16.0287 to 16.0287
Heightened Def Con from 16.0288 to 16.0288
Heightened Def Con from 16.0289 to 16.0289
Heightened Def Con from 18.0603 to 18.0603
Heightened Def Con from 18.0606 to 18.0606
Heightened Def Con from 22.0531 to 22.0531
Heightened Def Con from 22.0533 to 22.0533
Heightened Def Con from 22.0533 to 22.0533
Heightened Def Con from 24.0331 to 24.0331
Heightened Def Con from 24.0333 to 24.0333
Heightened Def Con from 29.0395 to 29.0395
Heightened Def Con from 29.0396 to 29.0396
Heightened Def Con from 29.0396 to 29.0396

Date: Sun Sep 20 23:12:24 2020
Total elapsed time: 19.590 seconds.

tnom = 27
temp = 27
method = modified trap
totiter = 145891
traniter = 143792
tranpoints = 61298
accept = 58909
rejected = 2421
matrix size = 125
fillins = 1299
solver = Normal
Thread vector: 25.1/17.1[3] 16.6/6.5[3] 13.0/6.4[3] 1.6/2.7[1]  2592/500
Matrix Compiler1: 228.31 KB object code size  53.9/39.1/[35.8]
Matrix Compiler2: 32.94 KB object code size  8.2/4.8/[2.5]

