Circuit: * C:\Users\dvone\Desktop\Engineering 3.2\E-Design 344\GitRepo\E344\LTSpice\Assignment 2\21785155_FullRange.asc

Early termination of direct N-R iteration.
Direct Newton iteration failed to find .op point.  (Use ".option noopiter" to skip.)
Starting Gmin stepping
Gmin = 10
vernier = 0.5
vernier = 0.25
vernier = 0.125
Gmin = 5.5165
vernier = 0.0625
vernier = 0.03125
vernier = 0.015625
vernier = 0.0078125
Gmin = 5.49501
vernier = 0.00390625
vernier = 0.00195313
vernier = 0.000976563
vernier = 0.000488281
Gmin = 5.50104
Gmin = 0
Gmin stepping failed

Starting source stepping with srcstepmethod=0
Source Step = 3.0303%
Source Step = 33.3333%
Source Step = 42.4302%
Starting source stepping with srcstepmethod=1
Source Step = 3.0303%
Source Step = 12.3698%
Source stepping failed

Pseudo Transient succeeded in finding the operating point at 29.4593 s.
Ignoring empty pin current: Ix(u3:1)
Ignoring empty pin current: Ix(u3:2)
Ignoring empty pin current: Ix(u8:1)
Ignoring empty pin current: Ix(u8:2)
Ignoring empty pin current: Ix(u3:1)
Ignoring empty pin current: Ix(u3:2)
Ignoring empty pin current: Ix(u8:1)
Ignoring empty pin current: Ix(u8:2)
Heightened Def Con from 0.0527 to 0.0527
Heightened Def Con from 0.0528311 to 0.0528311
Heightened Def Con from 0.0528966 to 0.0528966
Heightened Def Con from 0.052913 to 0.052913
Heightened Def Con from 1.0367 to 1.0367
Heightened Def Con from 1.03696 to 1.03696
Heightened Def Con from 2.0625 to 2.0625
Heightened Def Con from 2.06252 to 2.06252
Heightened Def Con from 6.0641 to 6.0641
Heightened Def Con from 6.06423 to 6.06423
Heightened Def Con from 7.0535 to 7.0535
Heightened Def Con from 8.0265 to 8.0265
Heightened Def Con from 8.02676 to 8.02676
Heightened Def Con from 8.02682 to 8.02682
Heightened Def Con from 9.0335 to 9.0335
Heightened Def Con from 9.03376 to 9.03376
Heightened Def Con from 9.0339 to 9.0339
Heightened Def Con from 9.03391 to 9.03391
Heightened Def Con from 10.0608 to 10.0608
Heightened Def Con from 11.0443 to 11.0443
Heightened Def Con from 11.0446 to 11.0446
Heightened Def Con from 11.0446 to 11.0446
Heightened Def Con from 12.0289 to 12.0289
Heightened Def Con from 12.029 to 12.029
Heightened Def Con from 15.0567 to 15.0567
Heightened Def Con from 16.0287 to 16.0287
Heightened Def Con from 16.0288 to 16.0288
Heightened Def Con from 16.0289 to 16.0289
Heightened Def Con from 18.0603 to 18.0603
Heightened Def Con from 18.0606 to 18.0606
Heightened Def Con from 19.0465 to 19.0465
Heightened Def Con from 19.0466 to 19.0466
Heightened Def Con from 20.0305 to 20.0305
Heightened Def Con from 20.0306 to 20.0306
Heightened Def Con from 20.0307 to 20.0307
Heightened Def Con from 22.0531 to 22.0531
Heightened Def Con from 22.0533 to 22.0533
Heightened Def Con from 22.0533 to 22.0533
Heightened Def Con from 24.0331 to 24.0331
Heightened Def Con from 24.0333 to 24.0333
Heightened Def Con from 25.0385 to 25.0385
Heightened Def Con from 25.0386 to 25.0386
Heightened Def Con from 25.0386 to 25.0386
Heightened Def Con from 26.0545 to 26.0545
Heightened Def Con from 28.0265 to 28.0265
Heightened Def Con from 28.0266 to 28.0266
Heightened Def Con from 29.0396 to 29.0396

Date: Mon Sep 21 23:02:13 2020
Total elapsed time: 61.640 seconds.

tnom = 27
temp = 27
method = modified trap
totiter = 478291
traniter = 147135
tranpoints = 61964
accept = 59322
rejected = 11890
matrix size = 135
fillins = 1865
solver = Normal
Thread vector: 53.7/46.2[3] 16.8/7.9[3] 15.0/12.7[3] 2.2/5.1[1]  2592/500
Matrix Compiler1: 379.34 KB object code size  145.1/81.9/[55.4]
Matrix Compiler2: 43.51 KB object code size  9.5/8.2/[3.9]

