Circuit: * C:\Users\dvone\Desktop\Engineering 3.2\E-Design 344\GitRepo\E344\LTSpice\Assignment 2\21785155.asc

Early termination of direct N-R iteration.
Direct Newton iteration failed to find .op point.  (Use ".option noopiter" to skip.)
Starting Gmin stepping
Gmin = 10
vernier = 0.5
vernier = 0.25
vernier = 0.125
Gmin = 5.5165
vernier = 0.0625
vernier = 0.03125
vernier = 0.015625
vernier = 0.0078125
Gmin = 5.49501
vernier = 0.00390625
vernier = 0.00195313
vernier = 0.000976563
vernier = 0.000488281
Gmin = 5.50104
Gmin = 0
Gmin stepping failed

Starting source stepping with srcstepmethod=0
Source Step = 3.0303%
Source Step = 33.3333%
Source Step = 63.6364%
Source Step = 73.6742%
Source Step = 75.5682%
Source Step = 77.4621%
Source Step = 79.3561%
Source Step = 81.25%
vernier = 0.09375
Source Step = 83.5227%
Source Step = 86.3636%
Source Step = 89.2045%
Source Step = 92.0455%
Source Step = 94.8864%
vernier = 0.140625
Source Step = 98.1534%
Source stepping succeeded in finding the operating point.

Heightened Def Con from 1.14e-009 to 3.15562e-009
Heightened Def Con from 3.18999e-009 to 3.18999e-009
Heightened Def Con from 3.18999e-009 to 4.31499e-009
Heightened Def Con from 4.35408e-009 to 4.49471e-009
Heightened Def Con from 4.49883e-009 to 5.62383e-009
Heightened Def Con from 6.39095e-009 to 6.6429e-009
Heightened Def Con from 6.64681e-009 to 7.02181e-009
Heightened Def Con from 7.03548e-009 to 7.03548e-009
Heightened Def Con from 7.03548e-009 +to 8.03746e-009
Heightened Def Con from 8.03747e-009 to 1.10375e-008
Heightened Def Con from 1.12953e-008 to 1.12992e-008
Heightened Def Con from 1.12994e-008 to 1.14264e-008
Heightened Def Con from 1.14312e-008 to 1.25562e-008
Heightened Def Con from 1.25616e-008 to 1.35772e-008
Heightened Def Con from 1.36084e-008 to 1.36241e-008
Heightened Def Con from 1.36246e-008 to 1.47496e-008
Heightened Def Con from 1.50214e-008 to 1.61464e-008
Heightened Def Con from 1.61464e-008 to 1.62714e-008
Heightened Def Con from 1.62714e-008 to 1.62714e-008
Heightened Def Con from 1.62714e-008 to 1.65214e-008
Heightened Def Con from 1.65218e-008 to 1.67718e-008
Heightened Def Con from 1.68449e-008 to 1.70949e-008
Heightened Def Con from 1.71674e-008 to 1.74174e-008
Heightened Def Con from 1.74418e-008 to 1.85668e-008
Heightened Def Con from 1.85683e-008 to 1.85859e-008
Heightened Def Con from 1.86181e-008 to 1.86494e-008
Heightened Def Con from 1.86494e-008 to 1.86499e-008
Heightened Def Con from 1.86499e-008 to 1.86519e-008
Heightened Def Con from 1.8652e-008 to 1.86559e-008
Heightened Def Con from 1.86562e-008 to 1.86562e-008
Heightened Def Con from 1.86562e-008 to 1.86601e-008
Heightened Def Con from 1.86601e-008 to 2.06621e-008
Heightened Def Con from 2.07245e-008 to 2.08497e-008
Heightened Def Con from 2.08497e-008 to 2.28653e-008
Heightened Def Con from 2.28658e-008 to 2.39908e-008
Heightened Def Con from 2.3994e-008 to 2.6994e-008
Heightened Def Con from 2.90156e-008 to 2.90469e-008
Heightened Def Con from 2.90483e-008 to 3.10503e-008
Heightened Def Con from 3.10503e-008 to 3.10816e-008
Heightened Def Con from 3.10831e-008 to 3.20834e-008
Heightened Def Con from 3.20834e-008 to 3.30853e-008
Heightened Def Con from 3.30858e-008 to 3.30858e-008
Heightened Def Con from 3.30858e-008 to 3.33358e-008
Heightened Def Con from 3.33358e-008 to 3.33358e-008
Heightened Def Con from 3.33358e-008 to 3.33358e-008
Heightened Def Con from 3.33358e-008 ++to 3.33359e-008
Heightened Def Con from 3.33363e-008 to 3.33676e-008
Heightened Def Con from 3.33988e-008 +to 3.65238e-008
Heightened Def Con from 3.86575e-008 to 3.87981e-008
Heightened Def Con from 3.88024e-008 to 3.8943e-008
Heightened Def Con from 3.8947e-008 to 3.9197e-008
Heightened Def Con from 3.9448e-008 to 3.9698e-008
Heightened Def Con from 3.97021e-008 to 3.9704e-008
Heightened Def Con from 3.97081e-008 to 3.99581e-008
Heightened Def Con from 4.02082e-008 to 4.02121e-008
Heightened Def Con from 4.02126e-008 to 4.03396e-008
Heightened Def Con from 4.03438e-008 to 4.03442e-008
Heightened Def Con from 4.03477e-008 to 4.04883e-008
Heightened Def Con from 4.04888e-008 to 4.06294e-008
Heightened Def Con from 4.07233e-008 to 4.27233e-008
Heightened Def Con from 4.27266e-008 to 4.27305e-008
Heightened Def Con from 4.27579e-008 to 4.47579e-008
Heightened Def Con from 4.60481e-008 to 4.60657e-008
Heightened Def Con from 4.60981e-008 to 4.63481e-008
Heightened Def Con from 4.67861e-008 to 4.87861e-008
Heightened Def Con from 4.89224e-008 to 4.89246e-008
Heightened Def Con from 4.89246e-008 to 5.09246e-008
Heightened Def Con from 5.93647e-008 to 5.9396e-008
Heightened Def Con from 5.94273e-008 to 6.05523e-008
Heightened Def Con from 6.05868e-008 to 6.17118e-008
Heightened Def Con from 6.25733e-008 to 6.36983e-008
Heightened Def Con from 6.37125e-008 to 6.37127e-008
Heightened Def Con from 6.37132e-008 to 6.37152e-008
Heightened Def Con from 6.3724e-008 to 6.3724e-008
Heightened Def Con from 6.3724e-008 to 6.4849e-008
Heightened Def Con from 6.4849e-008 to 6.6849e-008
Heightened Def Con from 6.73857e-008 to 6.93857e-008
Heightened Def Con from 6.95433e-008 to 7.15433e-008
Heightened Def Con from 7.17166e-008 to 7.18572e-008
Heightened Def Con from 7.18607e-008 to 7.21107e-008
Heightened Def Con from 7.2426e-008 to 7.34416e-008
Heightened Def Con from 7.34732e-008 to 7.45982e-008
Heightened Def Con from 7.46617e-008 to 7.46619e-008
Heightened Def Con from 7.46619e-008 to 7.46619e-008
Heightened Def Con from 7.46619e-008 to 7.4662e-008
Heightened Def Con from 7.4662e-008 to 7.56776e-008
Heightened Def Con from 7.57092e-008 to 7.67248e-008
Heightened Def Con from 7.67249e-008 to 7.67249e-008
Heightened Def Con from 7.67249e-008 to 7.68655e-008
Heightened Def Con from 7.71156e-008 to 7.91156e-008
Heightened Def Con from 7.91248e-008 to 7.92654e-008
Heightened Def Con from 7.92659e-008 to 7.92698e-008
Heightened Def Con from 7.92698e-008 +to 7.93948e-008
Heightened Def Con from 7.9395e-008 to 8.052e-008
Heightened Def Con from 8.052e-008 to 8.0647e-008
Heightened Def Con from 8.06475e-008 to 8.08975e-008
Heightened Def Con from 8.08984e-008 to 8.09141e-008
Heightened Def Con from 8.09143e-008 to 8.29143e-008
Heightened Def Con from 8.77113e-008 to 8.78363e-008
Heightened Def Con from 8.78685e-008 to 8.78707e-008
Heightened Def Con from 8.78707e-008 to 8.78883e-008
Heightened Def Con from 8.78923e-008 to 8.98923e-008
Heightened Def Con from 9.00028e-008 to 9.02528e-008
Heightened Def Con from 9.02532e-008 to 9.03802e-008
Heightened Def Con from 9.05149e-008 to 9.15306e-008
Heightened Def Con from 9.1562e-008 to 9.17026e-008
Heightened Def Con from 9.17065e-008 to 9.27221e-008
Heightened Def Con from 9.67542e-008 to 9.67542e-008
Heightened Def Con from 9.67542e-008 to 9.67546e-008
Heightened Def Con from 9.67546e-008 to 9.67549e-008
Heightened Def Con from 9.67554e-008 to 9.6771e-008
Heightened Def Con from 9.6771e-008 to 9.7021e-008
Heightened Def Con from 9.72723e-008 to 9.83973e-008
Heightened Def Con from 9.84293e-008 to 9.86793e-008
Heightened Def Con from 9.86794e-008 to 1.00679e-007
Heightened Def Con from 1.00684e-007 to 1.00715e-007
Heightened Def Con from 1.00746e-007 to 1.01871e-007
Heightened Def Con from 1.01995e-007 to 1.03995e-007
Heightened Def Con from 1.04188e-007 to 1.06188e-007
Heightened Def Con from 1.06188e-007 to 1.06315e-007
Heightened Def Con from 1.06319e-007 to 1.08319e-007
Heightened Def Con from 1.09897e-007 to 1.10024e-007
Heightened Def Con from 1.10024e-007 to 1.11026e-007
Heightened Def Con from 1.1103e-007 to 1.1128e-007
Heightened Def Con from 1.15257e-007 to 1.1526e-007
Heightened Def Con from 1.15261e-007 to 1.15264e-007
Heightened Def Con from 1.1527e-007 to 1.1727e-007
Heightened Def Con from 1.23047e-007 to 1.23078e-007
Heightened Def Con from 1.23089e-007 to 1.24091e-007
Heightened Def Con from 1.24104e-007 to 1.26104e-007
Heightened Def Con from 1.27925e-007 to 1.27943e-007
Heightened Def Con from 1.27954e-007 to 1.27956e-007
Heightened Def Con from 1.28038e-007 to 1.28165e-007
Heightened Def Con from 1.28166e-007 to 1.29182e-007
Heightened Def Con from 1.29213e-007 to 1.30229e-007
Heightened Def Con from 1.30557e-007 to 1.31682e-007
Heightened Def Con from 1.32557e-007 to 1.32683e-007
Heightened Def Con from 1.32685e-007 to 1.34685e-007
Heightened Def Con from 1.34685e-007 to 1.36685e-007
Heightened Def Con from 1.3672e-007 to 1.3872e-007
Heightened Def Con from 1.40571e-007 to 1.40821e-007
Heightened Def Con from 1.41574e-007 to 1.42699e-007
Heightened Def Con from 1.42699e-007 to 1.4273e-007
Heightened Def Con from 1.42736e-007 to 1.43751e-007
Heightened Def Con from 1.43786e-007 to 1.43788e-007
Heightened Def Con from 1.43788e-007 to 1.44804e-007
Heightened Def Con from 1.44817e-007 to 1.46817e-007
Heightened Def Con from 1.52362e-007 to 1.52503e-007
Heightened Def Con from 1.52504e-007 +to 1.52522e-007
Heightened Def Con from 1.52522e-007 to 1.53647e-007
Heightened Def Con from 1.53652e-007 to 1.53669e-007
Heightened Def Con from 1.53775e-007 to 1.53915e-007
Heightened Def Con from 1.53915e-007 to 1.53915e-007
Heightened Def Con from 1.53915e-007 to 1.55915e-007
Heightened Def Con from 1.55971e-007 to 1.56221e-007
Heightened Def Con from 1.56233e-007 to 1.56248e-007
Heightened Def Con from 1.56249e-007 to 1.56376e-007
Heightened Def Con from 1.56376e-007 to 1.56378e-007
Heightened Def Con from 1.56378e-007 to 1.56378e-007
Heightened Def Con from 1.56378e-007 to 1.56505e-007
Heightened Def Con from 1.56536e-007 to 1.56537e-007
Heightened Def Con from 1.56538e-007 to 1.5754e-007
Heightened Def Con from 1.57547e-007 to 1.57547e-007
Heightened Def Con from 1.57547e-007 to 1.57547e-007
Heightened Def Con from 1.57547e-007 to 1.58563e-007
Heightened Def Con from 1.58782e-007 to 1.60782e-007
Heightened Def Con from 1.60808e-007 +to 1.60808e-007
Heightened Def Con from 1.60808e-007 to 1.62808e-007
Heightened Def Con from 0.225646 to 0.225646
Heightened Def Con from 0.225646 to 0.225646
Heightened Def Con from 0.225646 to 0.225646
Heightened Def Con from 0.225646 to 0.225646
Heightened Def Con from 0.225646 to 0.225646
Heightened Def Con from 0.225646 to 0.225646
Heightened Def Con from 0.225646 to 0.225646
Heightened Def Con from 0.225646 +to 0.225646
Heightened Def Con from 0.225646 to 0.225646
Heightened Def Con from 0.225646 to 0.225646
Heightened Def Con from 0.225646 to 0.225646
Heightened Def Con from 0.225646 to 0.225646
Heightened Def Con from 0.225646 to 0.225646
Heightened Def Con from 0.225646 to 0.225646
Heightened Def Con from 0.225646 to 0.225646
Heightened Def Con from 0.225646 to 0.225646
Heightened Def Con from 0.225646 to 0.225646
Heightened Def Con from 0.225646 to 0.225646
Heightened Def Con from 0.225646 to 0.225646
Heightened Def Con from 0.225646 to 0.225646
Heightened Def Con from 0.225646 to 0.225646
Heightened Def Con from 0.225646 to 0.225646
Heightened Def Con from 0.225646 to 0.225646
Heightened Def Con from 0.225646 to 0.225646
Heightened Def Con from 0.225646 to 0.225646
Heightened Def Con from 0.225646 to 0.225646
Heightened Def Con from 0.225646 to 0.225646
Heightened Def Con from 0.225646 to 0.225646
Heightened Def Con from 0.225646 to 0.225646
Heightened Def Con from 0.225646 to 0.225646
Heightened Def Con from 0.225646 to 0.225646
Heightened Def Con from 0.225646 to 0.225646
Heightened Def Con from 0.225646 to 0.225646
Heightened Def Con from 0.225646 to 0.225646
Heightened Def Con from 0.225646 to 0.225646
Heightened Def Con from 0.225646 to 0.225646
Heightened Def Con from 0.225646 to 0.225646
Heightened Def Con from 0.225646 to 0.225646
Heightened Def Con from 0.225646 to 0.225646
Heightened Def Con from 0.225646 to 0.225646
Heightened Def Con from 0.225646 to 0.225646
Heightened Def Con from 0.225646 +to 0.225646
Heightened Def Con from 0.225646 to 0.225646
Heightened Def Con from 0.225646 +to 0.225646
Heightened Def Con from 0.225646 to 0.225646
Heightened Def Con from 0.225646 to 0.225646
Heightened Def Con from 0.225646 to 0.225646
Heightened Def Con from 0.225646 to 0.225646
Heightened Def Con from 0.225646 +to 0.225646
Heightened Def Con from 0.225646 to 0.225646
Heightened Def Con from 0.225646 to 0.225646
Heightened Def Con from 0.225646 to 0.225646
Heightened Def Con from 0.225646 to 0.225646
Heightened Def Con from 0.225646 to 0.225646
Heightened Def Con from 0.225646 to 0.225646
Heightened Def Con from 0.225646 to 0.225646
Heightened Def Con from 0.225646 to 0.225646
Heightened Def Con from 0.225646 to 0.225646
Heightened Def Con from 0.225646 to 0.225646
Heightened Def Con from 0.225646 to 0.225646
Heightened Def Con from 0.225646 to 0.225646
Heightened Def Con from 0.225646 to 0.225646
Heightened Def Con from 0.225646 to 0.225646
Heightened Def Con from 0.225646 to 0.225647
Heightened Def Con from 0.225647 to 0.225647
Heightened Def Con from 0.225647 to 0.225647
Heightened Def Con from 0.225647 to 0.225647
Heightened Def Con from 0.225647 to 0.225647
Heightened Def Con from 0.225647 to 0.225647
Heightened Def Con from 0.225647 to 0.225647
Heightened Def Con from 0.225647 to 0.225647
Heightened Def Con from 0.225647 to 0.225647
Heightened Def Con from 0.454502 to 0.454502
Heightened Def Con from 0.454502 to 0.454502
Heightened Def Con from 0.454502 to 0.454502
Heightened Def Con from 0.454502 to 0.454502
Heightened Def Con from 0.454502 to 0.454502
Heightened Def Con from 0.454502 to 0.454502
Heightened Def Con from 0.454502 to 0.454502
Heightened Def Con from 0.454502 to 0.454502
Heightened Def Con from 0.454502 to 0.454502
Heightened Def Con from 0.454502 to 0.454502
Heightened Def Con from 0.454502 to 0.454502
Heightened Def Con from 0.454502 to 0.454502
Heightened Def Con from 0.454502 to 0.454502
Heightened Def Con from 0.454502 to 0.454502
Heightened Def Con from 0.454502 to 0.454502
Heightened Def Con from 0.454502 to 0.454502
Heightened Def Con from 0.454502 to 0.454502
Heightened Def Con from 0.454502 to 0.454502
Heightened Def Con from 0.454502 to 0.454502
Heightened Def Con from 0.454502 to 0.454502
Heightened Def Con from 0.454502 to 0.454502
Heightened Def Con from 0.454502 to 0.454502
Heightened Def Con from 0.454502 to 0.454502
Heightened Def Con from 0.454502 to 0.454502
Heightened Def Con from 0.454502 to 0.454502
Heightened Def Con from 0.454502 to 0.454502
Heightened Def Con from 0.454502 to 0.454502
Heightened Def Con from 0.454502 to 0.454502
Heightened Def Con from 0.454502 to 0.454502
Heightened Def Con from 0.454502 to 0.454502
Heightened Def Con from 0.454502 to 0.454502
Heightened Def Con from 0.454502 to 0.454502
Heightened Def Con from 0.454502 to 0.454502
Heightened Def Con from 0.454502 to 0.454502
Heightened Def Con from 0.454502 to 0.454502
Heightened Def Con from 0.454502 to 0.454502
Heightened Def Con from 0.454502 to 0.454502
Heightened Def Con from 0.454502 to 0.454502
Heightened Def Con from 0.454502 to 0.454502
Heightened Def Con from 0.454502 to 0.454502
Heightened Def Con from 0.454502 to 0.454502
Heightened Def Con from 0.454502 to 0.454502
Heightened Def Con from 0.454502 to 0.454502
Heightened Def Con from 0.454502 to 0.454502
Heightened Def Con from 0.454502 to 0.454502
Heightened Def Con from 0.454502 to 0.454502
Heightened Def Con from 0.543215 to 0.543215
Heightened Def Con from 0.543215 to 0.543215
Heightened Def Con from 0.543215 to 0.543215
Heightened Def Con from 0.543215 +to 0.543215
Heightened Def Con from 0.543215 to 0.543215
Heightened Def Con from 0.543215 to 0.543215
Heightened Def Con from 0.66063 to 0.66063
Heightened Def Con from 0.66063 to 0.66063
Heightened Def Con from 0.66063 ++to 0.66063
Heightened Def Con from 0.66063 to 0.66063
Heightened Def Con from 0.66063 to 0.66063
Heightened Def Con from 0.66063 to 0.66063
Heightened Def Con from 0.66063 to 0.66063
Heightened Def Con from 0.66063 to 0.66063
Heightened Def Con from 0.66063 to 0.66063
Heightened Def Con from 0.66063 to 0.66063
Heightened Def Con from 0.66063 to 0.66063
Heightened Def Con from 0.66063 to 0.66063
Heightened Def Con from 0.66063 to 0.66063
Heightened Def Con from 0.66063 to 0.66063
Heightened Def Con from 0.66063 to 0.66063
Heightened Def Con from 0.66063 to 0.66063
Heightened Def Con from 0.66063 to 0.66063
Heightened Def Con from 0.66063 to 0.66063
Heightened Def Con from 0.66063 to 0.66063
Heightened Def Con from 0.66063 to 0.66063
Heightened Def Con from 0.66063 to 0.66063
Heightened Def Con from 0.66063 to 0.66063
Heightened Def Con from 0.66063 to 0.66063
Heightened Def Con from 0.66063 +++to 0.66063
Heightened Def Con from 0.66063 to 0.66063
Heightened Def Con from 0.66063 to 0.66063
Heightened Def Con from 0.66063 to 0.66063
Heightened Def Con from 0.66063 to 0.66063
Heightened Def Con from 0.66063 to 0.66063
Heightened Def Con from 0.66063 to 0.66063
Heightened Def Con from 0.66063 to 0.66063
Heightened Def Con from 0.66063 to 0.66063
Heightened Def Con from 0.66063 to 0.66063
Heightened Def Con from 0.66063 to 0.66063
Heightened Def Con from 0.66063 to 0.66063
Heightened Def Con from 0.66063 to 0.66063
Heightened Def Con from 0.66063 to 0.66063
Heightened Def Con from 0.66063 to 0.66063
Heightened Def Con from 0.66063 to 0.66063
Heightened Def Con from 0.66063 to 0.66063
Heightened Def Con from 0.66063 to 0.66063
Heightened Def Con from 0.66063 to 0.66063
Heightened Def Con from 0.66063 to 0.66063
Heightened Def Con from 0.66063 to 0.66063
Heightened Def Con from 0.66063 to 0.66063
Heightened Def Con from 0.66063 to 0.66063
Heightened Def Con from 0.66063 to 0.66063
Heightened Def Con from 0.66063 to 0.66063
Heightened Def Con from 0.66063 to 0.66063
Heightened Def Con from 0.66063 to 0.66063
Heightened Def Con from 0.66063 to 0.66063
Heightened Def Con from 0.66063 to 0.66063
Heightened Def Con from 0.66063 to 0.66063
Heightened Def Con from 0.66063 to 0.66063
Heightened Def Con from 0.66063 to 0.66063
Heightened Def Con from 0.66063 to 0.66063
Heightened Def Con from 0.66063 to 0.66063
Heightened Def Con from 0.66063 to 0.66063
Heightened Def Con from 0.66063 to 0.66063
Heightened Def Con from 0.66063 to 0.66063
Heightened Def Con from 0.66063 to 0.66063
Heightened Def Con from 0.66063 +to 0.66063
Heightened Def Con from 0.66063 to 0.66063
Heightened Def Con from 0.66063 to 0.66063
Heightened Def Con from 0.66063 to 0.66063
Heightened Def Con from 0.66063 to 0.66063
Heightened Def Con from 0.66063 to 0.66063
Heightened Def Con from 0.84831 to 0.84831
Heightened Def Con from 0.84831 to 0.84831
Heightened Def Con from 0.84831 to 0.84831
Heightened Def Con from 1.03642 to 1.03642
Heightened Def Con from 1.03642 to 1.03642
Heightened Def Con from 1.03642 to 1.03642
Heightened Def Con from 1.03642 to 1.03642
Heightened Def Con from 1.03642 to 1.03642
Heightened Def Con from 1.03642 to 1.03642
Heightened Def Con from 1.03642 to 1.03642
Heightened Def Con from 1.03642 to 1.03642
Heightened Def Con from 1.03642 +to 1.03642
Heightened Def Con from 1.03642 +to 1.03642
Heightened Def Con from 1.03642 to 1.03642
Heightened Def Con from 1.03642 to 1.03642
Heightened Def Con from 1.03642 to 1.03642
Heightened Def Con from 1.03642 to 1.03642
Heightened Def Con from 1.03642 to 1.03642
Heightened Def Con from 1.03642 to 1.03642
Heightened Def Con from 1.03642 to 1.03642
Heightened Def Con from 1.03642 to 1.03642
Heightened Def Con from 1.03642 to 1.03642
Heightened Def Con from 1.03642 to 1.03642
Heightened Def Con from 1.03642 to 1.03642
Heightened Def Con from 1.03642 to 1.03642
Heightened Def Con from 1.03642 to 1.03642
Heightened Def Con from 1.03642 to 1.03642
Heightened Def Con from 1.03642 to 1.03642
Heightened Def Con from 1.03642 to 1.03642
Heightened Def Con from 1.03642 to 1.03642
Heightened Def Con from 1.03642 to 1.03642
Heightened Def Con from 1.03642 to 1.03642
Heightened Def Con from 1.03642 to 1.03642
Heightened Def Con from 1.03642 to 1.03642
Heightened Def Con from 1.03642 to 1.03642
Heightened Def Con from 1.03642 to 1.03642
Heightened Def Con from 1.03642 to 1.03642
Heightened Def Con from 1.03642 to 1.03642
Heightened Def Con from 1.03642 to 1.03642
Heightened Def Con from 1.03642 to 1.03642
Heightened Def Con from 1.03642 to 1.03642
Heightened Def Con from 1.03642 to 1.03642
Heightened Def Con from 1.03642 to 1.03642
Heightened Def Con from 1.03642 to 1.03642
Heightened Def Con from 1.03642 to 1.03642
Heightened Def Con from 1.03642 to 1.03642
Heightened Def Con from 1.03642 to 1.03642
Heightened Def Con from 1.03642 to 1.03642
Heightened Def Con from 1.03642 to 1.03642
Heightened Def Con from 1.03642 to 1.03642
Heightened Def Con from 1.03642 to 1.03642
Heightened Def Con from 1.03642 to 1.03642
Heightened Def Con from 1.03642 to 1.03642
Heightened Def Con from 1.03642 to 1.03642
Heightened Def Con from 1.0785 to 1.0785
Heightened Def Con from 1.0785 to 1.0785
Heightened Def Con from 1.0785 to 1.0785
Heightened Def Con from 1.0785 to 1.0785
Heightened Def Con from 1.0785 to 1.0785
Heightened Def Con from 1.0785 to 1.0785
Heightened Def Con from 1.0785 to 1.0785
Heightened Def Con from 1.0785 to 1.0785
Heightened Def Con from 1.0785 to 1.0785
Heightened Def Con from 1.0785 to 1.0785
Heightened Def Con from 1.0785 to 1.0785
Heightened Def Con from 1.0785 to 1.0785
Heightened Def Con from 1.0785 to 1.0785
Heightened Def Con from 1.0785 to 1.0785
Heightened Def Con from 1.0785 to 1.0785
Heightened Def Con from 1.0785 to 1.0785
Heightened Def Con from 1.0785 to 1.0785
Heightened Def Con from 1.0785 to 1.0785
Heightened Def Con from 1.0785 to 1.0785
Heightened Def Con from 1.0785 to 1.0785
Heightened Def Con from 1.0785 to 1.0785
Heightened Def Con from 1.0785 to 1.0785
Heightened Def Con from 1.0785 to 1.0785
Heightened Def Con from 1.0785 to 1.0785
Heightened Def Con from 1.0785 to 1.0785
Heightened Def Con from 1.0785 to 1.0785
Heightened Def Con from 1.0785 to 1.0785
Heightened Def Con from 1.0785 to 1.0785
Heightened Def Con from 1.0785 to 1.0785
Heightened Def Con from 1.0785 to 1.0785
Heightened Def Con from 1.0785 to 1.0785
Heightened Def Con from 1.0785 to 1.0785
Heightened Def Con from 1.0785 to 1.0785
Heightened Def Con from 1.0785 to 1.0785
Heightened Def Con from 1.0785 to 1.0785
Heightened Def Con from 1.0785 to 1.0785
Heightened Def Con from 1.0785 to 1.0785
Heightened Def Con from 1.0785 to 1.0785
Heightened Def Con from 1.0785 to 1.0785
Heightened Def Con from 1.0785 to 1.0785
Heightened Def Con from 1.0785 to 1.0785
Heightened Def Con from 1.0785 to 1.0785
Heightened Def Con from 1.0785 to 1.0785
Heightened Def Con from 1.2575 to 1.2575
Heightened Def Con from 1.2575 to 1.2575
Heightened Def Con from 1.2575 to 1.2575
Heightened Def Con from 1.2575 to 1.2575
Heightened Def Con from 1.2575 +to 1.2575
Heightened Def Con from 1.2575 to 1.2575
Heightened Def Con from 1.2575 to 1.2575
Heightened Def Con from 1.2575 to 1.2575
Heightened Def Con from 1.2575 to 1.2575
Heightened Def Con from 1.2575 to 1.2575
Heightened Def Con from 1.2575 to 1.2575
Heightened Def Con from 1.2575 to 1.2575
Heightened Def Con from 1.2575 to 1.2575
Heightened Def Con from 1.2575 to 1.2575
Heightened Def Con from 1.2575 to 1.2575
Heightened Def Con from 1.2575 to 1.2575
Heightened Def Con from 1.2575 to 1.2575
Heightened Def Con from 1.2575 to 1.2575
Heightened Def Con from 1.2575 to 1.2575
Heightened Def Con from 1.2575 to 1.2575
Heightened Def Con from 1.2575 to 1.2575
Heightened Def Con from 1.2575 to 1.2575
Heightened Def Con from 1.2575 to 1.2575
Heightened Def Con from 1.2575 to 1.2575
Heightened Def Con from 1.2575 to 1.2575
Heightened Def Con from 1.2575 to 1.2575
Heightened Def Con from 1.2575 to 1.2575
Heightened Def Con from 1.2575 to 1.2575
Heightened Def Con from 1.2575 to 1.2575
Heightened Def Con from 1.2575 to 1.2575
Heightened Def Con from 1.2575 to 1.2575
Heightened Def Con from 1.2575 to 1.2575
Heightened Def Con from 1.2575 to 1.2575
Heightened Def Con from 1.2575 to 1.2575
Heightened Def Con from 1.2575 to 1.2575
Heightened Def Con from 1.2575 to 1.2575
Heightened Def Con from 1.2575 to 1.2575
Heightened Def Con from 1.2575 to 1.2575
Heightened Def Con from 1.2575 to 1.2575
Heightened Def Con from 1.2575 to 1.2575
Heightened Def Con from 1.2575 to 1.2575
Heightened Def Con from 1.2575 to 1.2575
Heightened Def Con from 1.2575 to 1.2575
Heightened Def Con from 1.2575 to 1.2575
Heightened Def Con from 1.2575 to 1.2575
Heightened Def Con from 1.2575 to 1.2575
Heightened Def Con from 1.2575 to 1.2575
Heightened Def Con from 1.2575 to 1.2575
Heightened Def Con from 1.2575 to 1.2575
Heightened Def Con from 1.2575 to 1.2575
Heightened Def Con from 1.2575 to 1.2575
Heightened Def Con from 1.2575 to 1.2575
Heightened Def Con from 1.2575 to 1.2575
Heightened Def Con from 1.2575 to 1.2575
Heightened Def Con from 1.2575 to 1.2575
Heightened Def Con from 1.2575 to 1.2575
Heightened Def Con from 1.2575 to 1.2575
Heightened Def Con from 1.2575 to 1.2575
Heightened Def Con from 1.41027 to 1.41027
Heightened Def Con from 1.41027 to 1.41027
Heightened Def Con from 1.41027 to 1.41027
Heightened Def Con from 1.41027 to 1.41027
Heightened Def Con from 1.41027 to 1.41027
Heightened Def Con from 1.41027 to 1.41027
Heightened Def Con from 1.41027 to 1.41027
Heightened Def Con from 1.41027 to 1.41027
Heightened Def Con from 1.41027 to 1.41027
Heightened Def Con from 1.41027 to 1.41027
Heightened Def Con from 1.41027 to 1.41027
Heightened Def Con from 1.41027 to 1.41027
Heightened Def Con from 1.41027 to 1.41027
Heightened Def Con from 1.41027 +to 1.41027
Heightened Def Con from 1.41027 to 1.41027
Heightened Def Con from 1.41027 to 1.41027
Heightened Def Con from 1.41027 to 1.41027
Heightened Def Con from 1.41027 to 1.41027
Heightened Def Con from 1.41027 to 1.41027
Heightened Def Con from 1.41027 to 1.41027
Heightened Def Con from 1.41027 to 1.41027
Heightened Def Con from 1.41027 +to 1.41027
Heightened Def Con from 1.41027 to 1.41027
Heightened Def Con from 1.41027 to 1.41027
Heightened Def Con from 1.41027 to 1.41027
Heightened Def Con from 1.41027 to 1.41027
Heightened Def Con from 1.41027 to 1.41027
Heightened Def Con from 1.41027 to 1.41027
Heightened Def Con from 1.45276 to 1.45276
Heightened Def Con from 1.45276 to 1.45276
Heightened Def Con from 1.45276 to 1.45276
Heightened Def Con from 1.45276 to 1.45276
Heightened Def Con from 1.45276 to 1.45276
Heightened Def Con from 1.45276 to 1.45276
Heightened Def Con from 1.45276 to 1.45276
Heightened Def Con from 1.45276 to 1.45276
Heightened Def Con from 1.45276 to 1.45276
Heightened Def Con from 1.45276 to 1.45276
Heightened Def Con from 1.45276 to 1.45276
Heightened Def Con from 1.45276 to 1.45276
Heightened Def Con from 1.45276 to 1.45276
Heightened Def Con from 1.45276 to 1.45276
Heightened Def Con from 1.45276 to 1.45276
Heightened Def Con from 1.45276 to 1.45276
Heightened Def Con from 1.45276 to 1.45276
Heightened Def Con from 1.45276 to 1.45276
Heightened Def Con from 1.45276 to 1.45276
Heightened Def Con from 1.45276 to 1.45276
Heightened Def Con from 1.45276 +to 1.45276
Heightened Def Con from 1.45276 to 1.45276
Heightened Def Con from 1.45276 to 1.45276
Heightened Def Con from 1.45276 to 1.45276
Heightened Def Con from 1.45276 +to 1.45276
Heightened Def Con from 1.45276 to 1.45276
Heightened Def Con from 1.45276 to 1.45276
Heightened Def Con from 1.45276 +to 1.45276
Heightened Def Con from 1.6585 to 1.6585
Heightened Def Con from 1.6585 to 1.6585
Heightened Def Con from 1.6585 to 1.6585
Heightened Def Con from 1.6585 to 1.6585
Heightened Def Con from 1.6585 to 1.6585
Heightened Def Con from 1.6585 to 1.6585
Heightened Def Con from 1.6585 to 1.6585
Heightened Def Con from 1.6585 to 1.6585
Heightened Def Con from 1.6585 to 1.6585
Heightened Def Con from 1.6585 to 1.6585
Heightened Def Con from 1.6585 to 1.6585
Heightened Def Con from 1.6585 to 1.6585
Heightened Def Con from 1.6585 to 1.6585
Heightened Def Con from 1.6585 to 1.6585
Heightened Def Con from 1.6585 to 1.6585
Heightened Def Con from 1.6585 to 1.6585
Heightened Def Con from 1.6585 to 1.6585
Heightened Def Con from 1.6585 to 1.6585
Heightened Def Con from 1.6585 to 1.6585
Heightened Def Con from 1.6585 to 1.6585
Heightened Def Con from 1.6585 to 1.6585
Heightened Def Con from 1.82363 to 1.82363
Heightened Def Con from 1.82363 to 1.82363
Heightened Def Con from 1.82363 to 1.82363
Heightened Def Con from 1.82363 to 1.82363
Heightened Def Con from 1.82363 to 1.82363
Heightened Def Con from 1.82363 to 1.82363
Heightened Def Con from 1.82363 to 1.82363
Heightened Def Con from 1.82363 to 1.82363
Heightened Def Con from 1.82363 to 1.82363
Heightened Def Con from 1.82363 to 1.82363
Heightened Def Con from 1.82363 to 1.82363
Heightened Def Con from 1.82363 to 1.82363
Heightened Def Con from 1.82363 to 1.82363
Heightened Def Con from 1.82363 to 1.82363
Heightened Def Con from 1.82363 to 1.82363
Heightened Def Con from 1.82363 to 1.82363
Heightened Def Con from 1.82363 to 1.82363
Heightened Def Con from 1.82363 to 1.82363
Heightened Def Con from 1.82363 to 1.82363
Heightened Def Con from 1.82363 to 1.82363
Heightened Def Con from 1.82363 to 1.82363
Heightened Def Con from 1.82363 to 1.82363
Heightened Def Con from 1.82363 to 1.82363
Heightened Def Con from 1.82363 to 1.82363
Heightened Def Con from 1.82363 to 1.82363
Heightened Def Con from 1.82363 to 1.82363
Heightened Def Con from 1.82363 to 1.82363
Heightened Def Con from 1.82363 to 1.82363
Heightened Def Con from 1.82363 to 1.82363
Heightened Def Con from 1.82363 to 1.82363
Heightened Def Con from 1.82363 to 1.82363
Heightened Def Con from 1.82363 to 1.82363
Heightened Def Con from 1.82363 to 1.82363
Heightened Def Con from 1.82363 to 1.82363
Heightened Def Con from 1.82363 to 1.82363
Heightened Def Con from 1.82363 to 1.82363
Heightened Def Con from 1.82363 to 1.82363
Heightened Def Con from 1.82363 to 1.82363
Heightened Def Con from 1.82363 to 1.82363
Heightened Def Con from 1.82363 to 1.82363
Heightened Def Con from 1.82363 to 1.82363
Heightened Def Con from 1.82363 to 1.82363
Heightened Def Con from 1.82363 to 1.82363
Heightened Def Con from 1.82363 to 1.82363
Heightened Def Con from 1.82363 to 1.82363
Heightened Def Con from 1.82363 to 1.82363
Heightened Def Con from 1.82363 to 1.82363
Heightened Def Con from 1.82363 to 1.82363
Heightened Def Con from 1.84008 to 1.84008
Heightened Def Con from 1.84008 to 1.84008
Heightened Def Con from 1.84008 to 1.84008
Heightened Def Con from 1.84008 to 1.84008
Heightened Def Con from 1.84008 to 1.84008
Heightened Def Con from 1.84008 to 1.84008
Heightened Def Con from 1.84008 to 1.84008
Heightened Def Con from 1.84008 to 1.84008
Heightened Def Con from 1.84008 to 1.84008
Heightened Def Con from 1.84008 to 1.84008
Heightened Def Con from 1.84008 to 1.84008
Heightened Def Con from 1.84008 to 1.84008
Heightened Def Con from 1.84008 to 1.84008
Heightened Def Con from 1.84008 to 1.84008
Heightened Def Con from 1.84008 to 1.84008
Heightened Def Con from 1.84008 to 1.84008
Heightened Def Con from 1.84008 to 1.84008
Heightened Def Con from 1.84008 to 1.84008
Heightened Def Con from 1.84008 to 1.84008
Heightened Def Con from 1.84008 to 1.84008
Heightened Def Con from 1.84008 to 1.84008
Heightened Def Con from 1.84008 to 1.84008
Heightened Def Con from 1.84008 to 1.84008
Heightened Def Con from 1.84008 to 1.84008
Heightened Def Con from 1.84008 to 1.84008
Heightened Def Con from 1.84008 to 1.84008
Heightened Def Con from 1.84008 to 1.84008
Heightened Def Con from 1.84008 to 1.84008
Heightened Def Con from 1.84008 to 1.84008
Heightened Def Con from 1.84008 to 1.84008
Heightened Def Con from 1.84008 to 1.84008
Heightened Def Con from 1.84008 to 1.84008
Heightened Def Con from 1.84008 to 1.84008
Heightened Def Con from 1.84008 to 1.84008
Heightened Def Con from 1.84008 to 1.84008
Heightened Def Con from 1.84008 to 1.84008
Heightened Def Con from 2.0643 to 2.0643
Heightened Def Con from 2.0643 to 2.0643
Heightened Def Con from 2.0643 to 2.0643
Heightened Def Con from 2.0643 to 2.0643
Heightened Def Con from 2.0643 to 2.0643
Heightened Def Con from 2.0643 to 2.0643
Heightened Def Con from 2.0643 to 2.0643
Heightened Def Con from 2.06433 to 2.06433
Heightened Def Con from 2.06433 +to 2.06433
Heightened Def Con from 2.06433 to 2.06433
Heightened Def Con from 2.06433 to 2.06433
Heightened Def Con from 2.06433 to 2.06433
Heightened Def Con from 2.06433 to 2.06433
Heightened Def Con from 2.06433 to 2.06433
Heightened Def Con from 2.06433 to 2.06433
Heightened Def Con from 2.06433 to 2.06433
Heightened Def Con from 2.22618 to 2.22618
Heightened Def Con from 2.22618 to 2.22618
Heightened Def Con from 2.22618 to 2.22618
Heightened Def Con from 2.22618 to 2.22618
Heightened Def Con from 2.22618 to 2.22618
Heightened Def Con from 2.22618 to 2.22618
Heightened Def Con from 2.22618 to 2.22618
Heightened Def Con from 2.22618 to 2.22618
Heightened Def Con from 2.22618 to 2.22618
Heightened Def Con from 2.22618 +to 2.22618
Heightened Def Con from 2.22618 to 2.22618
Heightened Def Con from 2.22618 +to 2.22618
Heightened Def Con from 2.22618 to 2.22618
Heightened Def Con from 2.22618 to 2.22618
Heightened Def Con from 2.22618 to 2.22618
Heightened Def Con from 2.22618 to 2.22618
Heightened Def Con from 2.22618 to 2.22618
Heightened Def Con from 2.22618 to 2.22618
Heightened Def Con from 2.22618 to 2.22618
Heightened Def Con from 2.22618 to 2.22618
Heightened Def Con from 2.22618 to 2.22618
Heightened Def Con from 2.22618 to 2.22618
Heightened Def Con from 2.22618 to 2.22618
Heightened Def Con from 2.22618 to 2.22618
Heightened Def Con from 2.22618 +to 2.22618
Heightened Def Con from 2.22618 +to 2.22618
Heightened Def Con from 2.22618 to 2.22618
Heightened Def Con from 2.22618 +to 2.22618
Heightened Def Con from 2.22618 to 2.22618
Heightened Def Con from 2.22618 to 2.22618
Heightened Def Con from 2.22618 to 2.22618
Heightened Def Con from 2.22618 to 2.22618
Heightened Def Con from 2.22618 to 2.22618
Heightened Def Con from 2.22618 to 2.22618
Heightened Def Con from 2.22618 to 2.22618
Heightened Def Con from 2.22618 to 2.22618
Heightened Def Con from 2.22618 to 2.22618
Heightened Def Con from 2.22618 to 2.22618
Heightened Def Con from 2.22618 to 2.22618
Heightened Def Con from 2.22618 to 2.22618
Heightened Def Con from 2.22618 to 2.22618
Heightened Def Con from 2.22618 to 2.22618
Heightened Def Con from 2.23376 to 2.23376
Heightened Def Con from 2.23376 to 2.23376
Heightened Def Con from 2.23376 to 2.23376
Heightened Def Con from 2.23376 to 2.23376
Heightened Def Con from 2.23376 to 2.23376
Heightened Def Con from 2.23376 to 2.23376
Heightened Def Con from 2.23376 to 2.23376
Heightened Def Con from 2.23376 to 2.23376
Heightened Def Con from 2.23376 to 2.23376
Heightened Def Con from 2.23376 to 2.23376
Heightened Def Con from 2.23376 to 2.23376
Heightened Def Con from 2.23376 to 2.23376
Heightened Def Con from 2.23376 to 2.23376
Heightened Def Con from 2.23376 to 2.23376
Heightened Def Con from 2.23376 to 2.23376
Heightened Def Con from 2.23376 to 2.23376
Heightened Def Con from 2.23376 to 2.23376
Heightened Def Con from 2.23376 to 2.23376
Heightened Def Con from 2.23376 to 2.23376
Heightened Def Con from 2.23376 to 2.23376
Heightened Def Con from 2.23376 to 2.23376
Heightened Def Con from 2.23376 to 2.23376
Heightened Def Con from 2.23376 to 2.23376
Heightened Def Con from 2.23376 to 2.23376
Heightened Def Con from 2.23376 to 2.23376
Heightened Def Con from 2.23376 to 2.23376
Heightened Def Con from 2.23376 +to 2.23376
Heightened Def Con from 2.23376 to 2.23376
Heightened Def Con from 2.23376 to 2.23376
Heightened Def Con from 2.23376 to 2.23376
Heightened Def Con from 2.23376 to 2.23376
Heightened Def Con from 2.23376 to 2.23376
Heightened Def Con from 2.23376 to 2.23376
Heightened Def Con from 2.23376 to 2.23376
Heightened Def Con from 2.23376 to 2.23376
Heightened Def Con from 2.23376 to 2.23376
Heightened Def Con from 2.23376 to 2.23376
Heightened Def Con from 2.23376 to 2.23376
Heightened Def Con from 2.23376 to 2.23376
Heightened Def Con from 2.23376 to 2.23376
Heightened Def Con from 2.23376 to 2.23376
Heightened Def Con from 2.23376 to 2.23376
Heightened Def Con from 2.23376 to 2.23376
Heightened Def Con from 2.23376 +to 2.23376
Heightened Def Con from 2.23376 +to 2.23376
Heightened Def Con from 2.23376 to 2.23376
Heightened Def Con from 2.4655 to 2.4655
Heightened Def Con from 2.4655 to 2.4655
Heightened Def Con from 2.4655 to 2.4655
Heightened Def Con from 2.4655 to 2.4655
Heightened Def Con from 2.4655 to 2.4655
Heightened Def Con from 2.4655 to 2.4655
Heightened Def Con from 2.4655 to 2.4655
Heightened Def Con from 2.4655 to 2.4655
Heightened Def Con from 2.4655 to 2.4655
Heightened Def Con from 2.4655 to 2.4655
Heightened Def Con from 2.4655 +to 2.4655
Heightened Def Con from 2.4655 to 2.4655
Heightened Def Con from 2.4655 to 2.4655
Heightened Def Con from 2.4655 to 2.4655
Heightened Def Con from 2.4655 to 2.4655
Heightened Def Con from 2.4655 to 2.4655
Heightened Def Con from 2.4655 to 2.4655
Heightened Def Con from 2.4655 to 2.4655
Heightened Def Con from 2.62668 to 2.62668
Heightened Def Con from 2.62668 to 2.62668
Heightened Def Con from 2.62668 to 2.62668
Heightened Def Con from 2.62668 to 2.62668
Heightened Def Con from 2.62668 to 2.62668
Heightened Def Con from 2.62668 to 2.62668
Heightened Def Con from 2.62668 to 2.62668
Heightened Def Con from 2.62668 to 2.62668
Heightened Def Con from 2.62668 to 2.62668
Heightened Def Con from 2.62668 to 2.62668
Heightened Def Con from 2.62668 to 2.62668
Heightened Def Con from 2.62668 to 2.62668
Heightened Def Con from 2.62668 to 2.62668
Heightened Def Con from 2.62668 to 2.62668
Heightened Def Con from 2.62668 to 2.62668
Heightened Def Con from 2.62668 to 2.62668
Heightened Def Con from 2.63309 to 2.63309
Heightened Def Con from 2.63309 to 2.63309
Heightened Def Con from 2.63309 to 2.63309
Heightened Def Con from 2.63309 to 2.63309
Heightened Def Con from 2.63309 to 2.63309
Heightened Def Con from 2.63309 +to 2.63309
Heightened Def Con from 2.63309 to 2.63309
Heightened Def Con from 2.63309 to 2.63309
Heightened Def Con from 2.63309 to 2.63309
Heightened Def Con from 2.63309 to 2.63309
Heightened Def Con from 2.63309 to 2.63309
Heightened Def Con from 2.63309 to 2.63309
Heightened Def Con from 2.63309 to 2.63309
Heightened Def Con from 2.63309 to 2.63309
Heightened Def Con from 2.63309 to 2.63309
Heightened Def Con from 2.63309 to 2.63309
Heightened Def Con from 2.63309 to 2.63309
Heightened Def Con from 2.63309 to 2.63309
Heightened Def Con from 2.63309 to 2.63309
Heightened Def Con from 2.63309 to 2.63309
Heightened Def Con from 2.63309 to 2.63309
Heightened Def Con from 2.63309 to 2.63309
Heightened Def Con from 2.63309 +to 2.63309
Heightened Def Con from 2.63309 to 2.63309
Heightened Def Con from 2.63309 to 2.63309
Heightened Def Con from 2.63309 to 2.63309
Heightened Def Con from 2.63309 to 2.63309
Heightened Def Con from 2.63309 to 2.63309
Heightened Def Con from 2.63309 to 2.63309
Heightened Def Con from 2.63309 to 2.63309
Heightened Def Con from 2.63309 to 2.63309
Heightened Def Con from 2.63309 to 2.63309
Heightened Def Con from 2.63309 to 2.63309
Heightened Def Con from 2.63309 to 2.63309
Heightened Def Con from 2.63309 to 2.63309
Heightened Def Con from 2.63309 to 2.63309
Heightened Def Con from 2.63309 to 2.63309
Heightened Def Con from 2.63309 to 2.63309
Heightened Def Con from 2.8603 to 2.8603
Heightened Def Con from 2.8603 to 2.8603
Heightened Def Con from 2.8603 to 2.8603
Heightened Def Con from 2.86056 to 2.86056
Heightened Def Con from 2.86056 to 2.86056
Heightened Def Con from 2.86056 to 2.86056
Heightened Def Con from 2.86056 to 2.86056
Heightened Def Con from 2.86056 to 2.86056
Heightened Def Con from 2.86057 to 2.86057
Heightened Def Con from 2.86057 to 2.86057
Heightened Def Con from 2.86057 to 2.86057
Heightened Def Con from 2.86057 to 2.86057
Heightened Def Con from 2.86057 to 2.86057
Heightened Def Con from 2.86057 to 2.86057
Heightened Def Con from 3.0193 to 3.0193
Heightened Def Con from 3.0193 to 3.0193
Heightened Def Con from 3.0193 to 3.0193
Heightened Def Con from 3.0193 to 3.0193
Heightened Def Con from 3.0193 to 3.0193
Heightened Def Con from 3.0193 to 3.0193
Heightened Def Con from 3.0193 to 3.0193
Heightened Def Con from 3.0193 to 3.0193
Heightened Def Con from 3.0193 to 3.0193
Heightened Def Con from 3.0193 to 3.0193
Heightened Def Con from 3.0193 to 3.0193
Heightened Def Con from 3.0193 to 3.0193
Heightened Def Con from 3.0193 to 3.0193
Heightened Def Con from 3.0193 to 3.0193
Heightened Def Con from 3.0193 to 3.0193
Heightened Def Con from 3.0193 +to 3.0193
Heightened Def Con from 3.0193 to 3.0193
Heightened Def Con from 3.0193 to 3.0193
Heightened Def Con from 3.0193 to 3.0193
Heightened Def Con from 3.0193 to 3.0193
Heightened Def Con from 3.0193 to 3.0193
Heightened Def Con from 3.0193 to 3.0193
Heightened Def Con from 3.05039 to 3.05039
Heightened Def Con from 3.05039 to 3.05039
Heightened Def Con from 3.05039 to 3.05039
Heightened Def Con from 3.05039 to 3.05039
Heightened Def Con from 3.05039 to 3.05039
Heightened Def Con from 3.05039 to 3.05039
Heightened Def Con from 3.05039 to 3.05039
Heightened Def Con from 3.05039 to 3.05039
Heightened Def Con from 3.05039 to 3.05039
Heightened Def Con from 3.05039 to 3.05039
Heightened Def Con from 3.05039 to 3.05039
Heightened Def Con from 3.05039 to 3.05039
Heightened Def Con from 3.05039 to 3.05039
Heightened Def Con from 3.05039 to 3.05039
Heightened Def Con from 3.05039 to 3.05039
Heightened Def Con from 3.05039 to 3.05039
Heightened Def Con from 3.05039 to 3.05039
Heightened Def Con from 3.05039 to 3.05039
Heightened Def Con from 3.05039 to 3.05039
Heightened Def Con from 3.05039 to 3.05039
Heightened Def Con from 3.05039 to 3.05039
Heightened Def Con from 3.05039 to 3.05039
Heightened Def Con from 3.05039 to 3.05039
Heightened Def Con from 3.05039 to 3.05039
Heightened Def Con from 3.05039 to 3.05039
Heightened Def Con from 3.05039 +to 3.05039
Heightened Def Con from 3.05039 to 3.05039
Heightened Def Con from 3.2585 to 3.2585
Heightened Def Con from 3.2585 to 3.2585
Heightened Def Con from 3.2585 to 3.2585
Heightened Def Con from 3.2585 to 3.2585
Heightened Def Con from 3.2585 to 3.2585
Heightened Def Con from 3.2585 to 3.2585
Heightened Def Con from 3.2585 to 3.2585
Heightened Def Con from 3.2585 to 3.2585
Heightened Def Con from 3.2585 +to 3.2585
Heightened Def Con from 3.2585 to 3.2585
Heightened Def Con from 3.2585 to 3.2585
Heightened Def Con from 3.2585 to 3.2585
Heightened Def Con from 3.2585 to 3.2585
Heightened Def Con from 3.2585 to 3.2585
Heightened Def Con from 3.2585 to 3.2585
Heightened Def Con from 3.2585 to 3.2585
Heightened Def Con from 3.2585 to 3.2585
Heightened Def Con from 3.2585 to 3.2585
Heightened Def Con from 3.2585 to 3.2585
Heightened Def Con from 3.2585 to 3.2585
Heightened Def Con from 3.2585 to 3.2585
Heightened Def Con from 3.2585 to 3.2585
Heightened Def Con from 3.2585 to 3.2585
Heightened Def Con from 3.2585 to 3.2585
Heightened Def Con from 3.2585 to 3.2585
Heightened Def Con from 3.2585 to 3.2585
Heightened Def Con from 3.2585 to 3.2585
Heightened Def Con from 3.2585 to 3.2585
Heightened Def Con from 3.2585 to 3.2585
Heightened Def Con from 3.2585 to 3.2585
Heightened Def Con from 3.2585 to 3.2585
Heightened Def Con from 3.2585 to 3.2585
Heightened Def Con from 3.2585 to 3.2585
Heightened Def Con from 3.2585 to 3.2585
Heightened Def Con from 3.2585 to 3.2585
Heightened Def Con from 3.2585 to 3.2585
Heightened Def Con from 3.2585 to 3.2585
Heightened Def Con from 3.41962 to 3.41962
Heightened Def Con from 3.41962 to 3.41962
Heightened Def Con from 3.41962 to 3.41962
Heightened Def Con from 3.41962 to 3.41962
Heightened Def Con from 3.41962 to 3.41962
Heightened Def Con from 3.41962 to 3.41962
Heightened Def Con from 3.41962 to 3.41962
Heightened Def Con from 3.41962 to 3.41962
Heightened Def Con from 3.41962 to 3.41962
Heightened Def Con from 3.41962 to 3.41962
Heightened Def Con from 3.41962 to 3.41962
Heightened Def Con from 3.41962 to 3.41962
Heightened Def Con from 3.41962 +to 3.41962
Heightened Def Con from 3.41962 to 3.41962
Heightened Def Con from 3.41962 to 3.41962
Heightened Def Con from 3.41962 to 3.41962
Heightened Def Con from 3.41962 to 3.41962
Heightened Def Con from 3.41962 to 3.41962
Heightened Def Con from 3.41962 to 3.41962
Heightened Def Con from 3.41962 to 3.41962
Heightened Def Con from 3.41962 to 3.41962
Heightened Def Con from 3.41962 to 3.41962
Heightened Def Con from 3.47312 to 3.47312
Heightened Def Con from 3.47312 to 3.47312
Heightened Def Con from 3.47312 to 3.47312
Heightened Def Con from 3.47312 to 3.47312
Heightened Def Con from 3.47312 to 3.47312
Heightened Def Con from 3.47312 to 3.47312
Heightened Def Con from 3.47312 to 3.47312
Heightened Def Con from 3.47312 to 3.47312
Heightened Def Con from 3.47312 to 3.47312
Heightened Def Con from 3.47312 to 3.47312
Heightened Def Con from 3.47312 to 3.47312
Heightened Def Con from 3.47312 to 3.47312
Heightened Def Con from 3.47312 to 3.47312
Heightened Def Con from 3.47312 to 3.47312
Heightened Def Con from 3.47312 +to 3.47312
Heightened Def Con from 3.47312 to 3.47312
Heightened Def Con from 3.47312 to 3.47312
Heightened Def Con from 3.47312 to 3.47312
Heightened Def Con from 3.47312 to 3.47312
Heightened Def Con from 3.47312 to 3.47312
Heightened Def Con from 3.47312 to 3.47312
Heightened Def Con from 3.47312 to 3.47312
Heightened Def Con from 3.47312 to 3.47312
Heightened Def Con from 3.47312 to 3.47312
Heightened Def Con from 3.47312 +to 3.47312
Heightened Def Con from 3.47312 to 3.47312
Heightened Def Con from 3.47312 to 3.47312
Heightened Def Con from 3.47312 to 3.47312
Heightened Def Con from 3.47312 to 3.47312
Heightened Def Con from 3.47312 to 3.47312
Heightened Def Con from 3.47312 to 3.47312
Heightened Def Con from 3.47312 to 3.47312
Heightened Def Con from 3.47312 to 3.47312
Heightened Def Con from 3.47312 to 3.47312
Heightened Def Con from 3.47312 to 3.47312
Heightened Def Con from 3.47312 to 3.47312
Heightened Def Con from 3.47312 to 3.47312
Heightened Def Con from 3.47312 to 3.47312
Heightened Def Con from 3.47312 to 3.47312
Heightened Def Con from 3.47312 to 3.47312
Heightened Def Con from 3.47312 to 3.47312
Heightened Def Con from 3.47312 to 3.47312
Heightened Def Con from 3.6487 to 3.6487
Heightened Def Con from 3.6487 to 3.6487
Heightened Def Con from 3.6487 to 3.6487
Heightened Def Con from 3.6487 to 3.6487
Heightened Def Con from 3.6487 to 3.6487
Heightened Def Con from 3.6487 to 3.6487
Heightened Def Con from 3.6487 to 3.6487
Heightened Def Con from 3.6487 to 3.6487
Heightened Def Con from 3.6487 to 3.6487
Heightened Def Con from 3.6487 to 3.6487
Heightened Def Con from 3.6487 to 3.6487
Heightened Def Con from 3.6487 to 3.6487
Heightened Def Con from 3.6487 to 3.6487
Heightened Def Con from 3.6487 to 3.6487
Heightened Def Con from 3.6487 to 3.6487
Heightened Def Con from 3.6487 to 3.6487
Heightened Def Con from 3.6487 to 3.6487
Heightened Def Con from 3.6487 to 3.6487
Heightened Def Con from 3.6487 to 3.6487
Heightened Def Con from 3.6487 to 3.6487
Heightened Def Con from 3.6487 to 3.6487
Heightened Def Con from 3.6487 to 3.6487
Heightened Def Con from 3.6487 to 3.6487
Heightened Def Con from 3.6487 to 3.6487
Heightened Def Con from 3.64896 to 3.64896
Heightened Def Con from 3.64896 to 3.64896
Heightened Def Con from 3.64896 to 3.64896
Heightened Def Con from 3.64909 to 3.64909
Heightened Def Con from 3.64909 to 3.64909
Heightened Def Con from 3.64916 to 3.64916
Heightened Def Con from 3.64916 to 3.64916
Heightened Def Con from 3.64916 to 3.64916
Heightened Def Con from 3.64916 to 3.64916
Heightened Def Con from 3.64916 to 3.64916
Heightened Def Con from 3.64916 to 3.64916
Heightened Def Con from 3.64916 to 3.64916
Heightened Def Con from 3.64916 to 3.64916
Heightened Def Con from 3.64916 to 3.64916
Heightened Def Con from 3.64916 to 3.64916
Heightened Def Con from 3.64916 to 3.64916
Heightened Def Con from 3.64916 to 3.64916
Heightened Def Con from 3.64916 to 3.64916
Heightened Def Con from 3.64916 to 3.64916
Heightened Def Con from 3.64916 to 3.64916
Heightened Def Con from 3.64916 to 3.64916
Heightened Def Con from 3.64916 to 3.64916
Heightened Def Con from 3.64916 to 3.64916
Heightened Def Con from 3.64918 to 3.64918
Heightened Def Con from 3.64918 to 3.64918
Heightened Def Con from 3.64918 to 3.64918
Heightened Def Con from 3.64918 to 3.64918
Heightened Def Con from 3.64918 to 3.64918
Heightened Def Con from 3.64918 to 3.64918
Heightened Def Con from 3.64918 to 3.64918
Heightened Def Con from 3.64918 to 3.64918
Heightened Def Con from 3.64918 to 3.64918
Heightened Def Con from 3.64918 to 3.64918
Heightened Def Con from 3.64918 to 3.64918
Heightened Def Con from 3.64918 to 3.64918
Heightened Def Con from 3.64918 to 3.64918
Heightened Def Con from 3.64918 to 3.64918
Heightened Def Con from 3.64918 to 3.64918
Heightened Def Con from 3.64918 to 3.64918
Heightened Def Con from 3.64918 to 3.64918
Heightened Def Con from 3.64918 to 3.64918
Heightened Def Con from 3.64918 to 3.64918
Heightened Def Con from 3.64918 to 3.64918
Heightened Def Con from 3.64918 to 3.64918
Heightened Def Con from 3.64918 to 3.64918
Heightened Def Con from 3.64918 to 3.64918
Heightened Def Con from 3.64918 to 3.64918
Heightened Def Con from 3.64918 to 3.64918
Heightened Def Con from 3.64918 to 3.64918
Heightened Def Con from 3.64918 to 3.64918
Heightened Def Con from 3.64918 to 3.64918
Heightened Def Con from 3.64918 to 3.64918
Heightened Def Con from 3.64918 to 3.64918
Heightened Def Con from 3.64918 to 3.64918
Heightened Def Con from 3.64918 to 3.64918
Heightened Def Con from 3.64918 to 3.64918
Heightened Def Con from 3.64918 to 3.64918
Heightened Def Con from 3.64918 to 3.64918
Heightened Def Con from 3.64918 to 3.64918
Heightened Def Con from 3.64918 to 3.64918
Heightened Def Con from 3.64918 to 3.64918
Heightened Def Con from 3.64918 to 3.64918
Heightened Def Con from 3.64918 to 3.64918
Heightened Def Con from 3.64919 to 3.64919
Heightened Def Con from 3.64919 to 3.64919
Heightened Def Con from 3.64919 to 3.64919
Heightened Def Con from 3.64919 to 3.64919
Heightened Def Con from 3.64919 +to 3.64919
Heightened Def Con from 3.64919 to 3.64919
Heightened Def Con from 3.64919 to 3.64919
Heightened Def Con from 3.64919 to 3.64919
Heightened Def Con from 3.64919 to 3.64919
Heightened Def Con from 3.64919 to 3.64919
Heightened Def Con from 3.80592 to 3.80592
Heightened Def Con from 3.80592 to 3.80592
Heightened Def Con from 3.89751 to 3.89751
Heightened Def Con from 3.89751 to 3.89751
Heightened Def Con from 3.89751 to 3.89751
Heightened Def Con from 3.89751 to 3.89751
Heightened Def Con from 3.89751 to 3.89751
Heightened Def Con from 3.89751 to 3.89751
Heightened Def Con from 3.89751 to 3.89751
Heightened Def Con from 3.89751 to 3.89751
Heightened Def Con from 3.89751 to 3.89751
Heightened Def Con from 3.89751 to 3.89751
Heightened Def Con from 3.89751 to 3.89751
Heightened Def Con from 3.89751 to 3.89751
Heightened Def Con from 3.89751 +to 3.89751
Heightened Def Con from 3.89751 to 3.89751
Heightened Def Con from 3.89751 to 3.89751
Heightened Def Con from 3.89751 to 3.89751
Heightened Def Con from 3.89751 to 3.89751
Heightened Def Con from 3.89751 to 3.89751
Heightened Def Con from 3.89751 to 3.89751
Heightened Def Con from 3.89751 to 3.89751
Heightened Def Con from 3.89751 to 3.89751
Heightened Def Con from 3.89751 to 3.89751
Heightened Def Con from 3.89751 to 3.89751
Heightened Def Con from 3.89751 to 3.89751
Heightened Def Con from 3.89751 to 3.89751
Heightened Def Con from 3.89751 to 3.89751
Heightened Def Con from 3.89751 to 3.89751
Heightened Def Con from 3.89751 to 3.89751
Heightened Def Con from 3.89751 to 3.89751
Heightened Def Con from 3.89751 to 3.89751
Heightened Def Con from 3.89751 to 3.89751
Heightened Def Con from 3.89751 to 3.89751
Heightened Def Con from 3.89751 to 3.89751
Heightened Def Con from 3.89751 to 3.89751
Heightened Def Con from 3.89751 to 3.89751
Heightened Def Con from 3.89751 to 3.89751
Heightened Def Con from 3.89751 +to 3.89751
Heightened Def Con from 3.89751 to 3.89751
Heightened Def Con from 3.89751 to 3.89751
Heightened Def Con from 3.89751 to 3.89751
Heightened Def Con from 3.89751 to 3.89751
Heightened Def Con from 3.89751 to 3.89751
Heightened Def Con from 3.89751 to 3.89751
Heightened Def Con from 3.89751 to 3.89751
Heightened Def Con from 3.89751 to 3.89751
Heightened Def Con from 3.89751 to 3.89751
Heightened Def Con from 3.89751 to 3.89751
Heightened Def Con from 3.89751 to 3.89751
Heightened Def Con from 3.89751 to 3.89751
Heightened Def Con from 3.89751 to 3.89751
Heightened Def Con from 4.0495 to 4.0495
Heightened Def Con from 4.0495 to 4.0495
Heightened Def Con from 4.0495 to 4.0495
Heightened Def Con from 4.0495 to 4.0495
Heightened Def Con from 4.0495 to 4.0495
Heightened Def Con from 4.0495 to 4.0495
Heightened Def Con from 4.0495 to 4.0495
Heightened Def Con from 4.0495 +to 4.0495
Heightened Def Con from 4.0495 to 4.0495
Heightened Def Con from 4.0495 to 4.0495
Heightened Def Con from 4.0495 to 4.0495
Heightened Def Con from 4.0495 +to 4.0495
Heightened Def Con from 4.0495 to 4.0495
Heightened Def Con from 4.0495 to 4.0495
Heightened Def Con from 4.0495 to 4.0495
Heightened Def Con from 4.0495 to 4.0495
Heightened Def Con from 4.0495 to 4.0495
Heightened Def Con from 4.0495 to 4.0495
Heightened Def Con from 4.0495 to 4.0495
Heightened Def Con from 4.0495 to 4.0495
Heightened Def Con from 4.0495 to 4.0495
Heightened Def Con from 4.0495 to 4.0495
Heightened Def Con from 4.0495 to 4.0495
Heightened Def Con from 4.0495 to 4.0495
Heightened Def Con from 4.0495 to 4.0495
Heightened Def Con from 4.0495 to 4.0495
Heightened Def Con from 4.0495 to 4.0495
Heightened Def Con from 4.0495 to 4.0495
Heightened Def Con from 4.0495 to 4.0495
Heightened Def Con from 4.0495 to 4.0495
Heightened Def Con from 4.0495 to 4.0495
Heightened Def Con from 4.0495 to 4.0495
Heightened Def Con from 4.0495 to 4.0495
Heightened Def Con from 4.0495 to 4.0495
Heightened Def Con from 4.0495 to 4.0495
Heightened Def Con from 4.0495 to 4.0495
Heightened Def Con from 4.0495 to 4.0495
Heightened Def Con from 4.0495 to 4.0495
Heightened Def Con from 4.0495 +to 4.0495
Heightened Def Con from 4.0495 to 4.0495
Heightened Def Con from 4.0495 to 4.0495
Heightened Def Con from 4.0495 to 4.0495
Heightened Def Con from 4.0495 to 4.0495
Heightened Def Con from 4.0495 to 4.0495
Heightened Def Con from 4.0495 to 4.0495
Heightened Def Con from 4.0495 to 4.0495
Heightened Def Con from 4.0495 to 4.0495
Heightened Def Con from 4.0495 to 4.0495
Heightened Def Con from 4.0495 to 4.0495
Heightened Def Con from 4.29505 to 4.29505
Heightened Def Con from 4.29505 to 4.29505
Heightened Def Con from 4.29505 to 4.29505
Heightened Def Con from 4.29505 to 4.29505
Heightened Def Con from 4.29505 to 4.29505
Heightened Def Con from 4.29505 to 4.29505
Heightened Def Con from 4.29505 to 4.29505
Heightened Def Con from 4.29505 to 4.29505
Heightened Def Con from 4.29505 to 4.29505
Heightened Def Con from 4.29505 +to 4.29505
Heightened Def Con from 4.29505 to 4.29505
Heightened Def Con from 4.29505 to 4.29505
Heightened Def Con from 4.29505 to 4.29505
Heightened Def Con from 4.29505 to 4.29505
Heightened Def Con from 4.29505 to 4.29505
Heightened Def Con from 4.29505 to 4.29505
Heightened Def Con from 4.29505 to 4.29505
Heightened Def Con from 4.29505 to 4.29505
Heightened Def Con from 4.29505 to 4.29505
Heightened Def Con from 4.29505 to 4.29505
Heightened Def Con from 4.29505 to 4.29505
Heightened Def Con from 4.29505 to 4.29505
Heightened Def Con from 4.29505 to 4.29505
Heightened Def Con from 4.29505 to 4.29505
Heightened Def Con from 4.29505 to 4.29505
Heightened Def Con from 4.29505 to 4.29505
Heightened Def Con from 4.29505 to 4.29505
Heightened Def Con from 4.29505 to 4.29505
Heightened Def Con from 4.29505 to 4.29505
Heightened Def Con from 4.29505 to 4.29505
Heightened Def Con from 4.29505 to 4.29505
Heightened Def Con from 4.29505 to 4.29505
Heightened Def Con from 4.29505 to 4.29505
Heightened Def Con from 4.29505 to 4.29505
Heightened Def Con from 4.29505 to 4.29505
Heightened Def Con from 4.29505 to 4.29505
Heightened Def Con from 4.29505 to 4.29505
Heightened Def Con from 4.29505 to 4.29505
Heightened Def Con from 4.29505 +to 4.29505
Heightened Def Con from 4.29505 to 4.29505
Heightened Def Con from 4.29505 +to 4.29505
Heightened Def Con from 4.29505 +to 4.29505
Heightened Def Con from 4.29505 to 4.29505
Heightened Def Con from 4.29505 to 4.29505
Heightened Def Con from 4.29505 to 4.29505
Heightened Def Con from 4.29505 to 4.29505
Heightened Def Con from 4.29505 to 4.29505
Heightened Def Con from 4.29505 to 4.29505
Heightened Def Con from 4.29505 to 4.29505
Heightened Def Con from 4.29505 to 4.29505
Heightened Def Con from 4.29505 to 4.29505
Heightened Def Con from 4.29505 to 4.29505
Heightened Def Con from 4.29505 to 4.29505
Heightened Def Con from 4.29505 to 4.29505
Heightened Def Con from 4.29505 to 4.29505
Heightened Def Con from 4.29505 to 4.29505
Heightened Def Con from 4.29505 to 4.29505
Heightened Def Con from 4.29505 to 4.29505
Heightened Def Con from 4.29505 to 4.29505
Heightened Def Con from 4.29505 to 4.29505
Heightened Def Con from 4.29505 to 4.29505
Heightened Def Con from 4.29505 to 4.29505
Heightened Def Con from 4.29505 +to 4.29505
Heightened Def Con from 4.29505 to 4.29505
Heightened Def Con from 4.29505 to 4.29505
Heightened Def Con from 4.29505 to 4.29505
Heightened Def Con from 4.29505 to 4.29505
Heightened Def Con from 4.29505 to 4.29505
Heightened Def Con from 4.29505 to 4.29505
Heightened Def Con from 4.29505 to 4.29505
Heightened Def Con from 4.29505 to 4.29505
Heightened Def Con from 4.29505 to 4.29505
Heightened Def Con from 4.29505 to 4.29505
Heightened Def Con from 4.29505 +to 4.29505
Heightened Def Con from 4.29505 to 4.29505
Heightened Def Con from 4.29505 to 4.29505
Heightened Def Con from 4.29505 to 4.29505
Heightened Def Con from 4.29505 to 4.29505
Heightened Def Con from 4.29505 to 4.29505
Heightened Def Con from 4.29505 to 4.29505
Heightened Def Con from 4.29505 +to 4.29505
Heightened Def Con from 4.29505 to 4.29505
Heightened Def Con from 4.29505 to 4.29505
Heightened Def Con from 4.29505 +to 4.29505
Heightened Def Con from 4.29505 to 4.29505
Heightened Def Con from 4.29505 to 4.29505
Heightened Def Con from 4.29505 to 4.29505
Heightened Def Con from 4.29505 to 4.29505
Heightened Def Con from 4.29505 to 4.29505
Heightened Def Con from 4.29505 to 4.29505
Heightened Def Con from 4.29505 to 4.29505
Heightened Def Con from 4.4435 to 4.4435
Heightened Def Con from 4.4435 to 4.4435
Heightened Def Con from 4.44353 to 4.44353
Heightened Def Con from 4.44353 to 4.44353
Heightened Def Con from 4.44353 to 4.44353
Heightened Def Con from 4.44353 to 4.44353
Heightened Def Con from 4.44353 to 4.44353
Heightened Def Con from 4.44353 to 4.44353
Heightened Def Con from 4.44353 to 4.44353
Heightened Def Con from 4.60091 to 4.60091
Heightened Def Con from 4.60091 to 4.60091
Heightened Def Con from 4.60091 to 4.60091
Heightened Def Con from 4.60091 to 4.60091
Heightened Def Con from 4.60091 to 4.60091
Heightened Def Con from 4.69139 to 4.69139
Heightened Def Con from 4.69139 to 4.69139
Heightened Def Con from 4.69139 to 4.69139
Heightened Def Con from 4.69139 to 4.69139
Heightened Def Con from 4.69139 to 4.69139
Heightened Def Con from 4.69139 to 4.69139
Heightened Def Con from 4.69139 to 4.69139
Heightened Def Con from 4.69139 to 4.69139
Heightened Def Con from 4.69139 to 4.69139
Heightened Def Con from 4.69139 to 4.69139
Heightened Def Con from 4.69139 to 4.69139
Heightened Def Con from 4.69139 to 4.69139
Heightened Def Con from 4.69139 +to 4.69139
Heightened Def Con from 4.69139 to 4.69139
Heightened Def Con from 4.69139 to 4.69139
Heightened Def Con from 4.69139 to 4.69139
Heightened Def Con from 4.69139 to 4.69139
Heightened Def Con from 4.69139 to 4.69139
Heightened Def Con from 4.69139 +to 4.69139
Heightened Def Con from 4.69139 to 4.69139
Heightened Def Con from 4.69139 to 4.69139
Heightened Def Con from 4.69139 to 4.69139
Heightened Def Con from 4.69139 to 4.69139
Heightened Def Con from 4.69139 to 4.69139
Heightened Def Con from 4.69139 to 4.69139
Heightened Def Con from 4.69139 to 4.69139
Heightened Def Con from 4.69139 to 4.69139
Heightened Def Con from 4.69139 to 4.69139
Heightened Def Con from 4.69139 to 4.69139
Heightened Def Con from 4.69139 to 4.69139
Heightened Def Con from 4.69139 to 4.69139
Heightened Def Con from 4.69139 +to 4.69139
Heightened Def Con from 4.69139 to 4.69139
Heightened Def Con from 4.69139 to 4.69139
Heightened Def Con from 4.69139 to 4.69139
Heightened Def Con from 4.8483 to 4.8483
Heightened Def Con from 4.8483 to 4.8483
Heightened Def Con from 4.8483 to 4.8483
Heightened Def Con from 4.8483 to 4.8483
Heightened Def Con from 4.84837 to 4.84837
Heightened Def Con from 4.84837 to 4.84837
Heightened Def Con from 4.84837 to 4.84837
Heightened Def Con from 4.84837 to 4.84837
Heightened Def Con from 4.84837 to 4.84837
Heightened Def Con from 4.84837 to 4.84837
Heightened Def Con from 4.84837 to 4.84837
Heightened Def Con from 4.84837 to 4.84837
Heightened Def Con from 4.84837 to 4.84837
Heightened Def Con from 4.84837 to 4.84837
Heightened Def Con from 4.84837 to 4.84837
Heightened Def Con from 4.84837 to 4.84837
Heightened Def Con from 4.84837 to 4.84837
Heightened Def Con from 4.84837 to 4.84837
Heightened Def Con from 4.84837 to 4.84837
Heightened Def Con from 4.84837 to 4.84837
Heightened Def Con from 4.84837 to 4.84837
Heightened Def Con from 4.84837 to 4.84837
Heightened Def Con from 4.84837 to 4.84837
Heightened Def Con from 4.84837 to 4.84837
Heightened Def Con from 4.84837 to 4.84837
Heightened Def Con from 4.84837 to 4.84837
Heightened Def Con from 4.84837 to 4.84837
Heightened Def Con from 4.84837 to 4.84837
Heightened Def Con from 4.84837 to 4.84837
Heightened Def Con from 4.84837 to 4.84837
Heightened Def Con from 4.84837 to 4.84837
Heightened Def Con from 4.84837 to 4.84837
Heightened Def Con from 4.84837 to 4.84837
Heightened Def Con from 4.84837 to 4.84837
Heightened Def Con from 4.84837 to 4.84837
Heightened Def Con from 4.84837 to 4.84837
Heightened Def Con from 4.84837 to 4.84837
Heightened Def Con from 4.84837 to 4.84837
Heightened Def Con from 4.84837 to 4.84837
Heightened Def Con from 4.84837 to 4.84837
Heightened Def Con from 4.84837 to 4.84837
Heightened Def Con from 4.84837 to 4.84837
Heightened Def Con from 4.84837 to 4.84837
Heightened Def Con from 4.84837 to 4.84837
Heightened Def Con from 4.84837 to 4.84837
Heightened Def Con from 4.84837 to 4.84837
Heightened Def Con from 4.84837 to 4.84837
Heightened Def Con from 4.84837 to 4.84837
Heightened Def Con from 4.84837 to 4.84837
Heightened Def Con from 4.84837 to 4.84837
Heightened Def Con from 4.84837 to 4.84837
Heightened Def Con from 4.84837 to 4.84837
Heightened Def Con from 4.84837 to 4.84837
Heightened Def Con from 4.84837 to 4.84837
Heightened Def Con from 4.84837 to 4.84837
Heightened Def Con from 4.84837 to 4.84837
Heightened Def Con from 4.84837 to 4.84837
Heightened Def Con from 4.84837 to 4.84837
Heightened Def Con from 4.84837 to 4.84837
Heightened Def Con from 4.84837 to 4.84837
Heightened Def Con from 4.84837 to 4.84837
Heightened Def Con from 4.84837 to 4.84837
Heightened Def Con from 4.84837 to 4.84837
Heightened Def Con from 4.84837 to 4.84837
Heightened Def Con from 4.84837 +to 4.84837
Heightened Def Con from 4.84837 to 4.84837
Heightened Def Con from 4.84837 to 4.84837
Heightened Def Con from 4.84837 to 4.84837
Heightened Def Con from 4.84837 to 4.84837
Heightened Def Con from 4.84837 to 4.84837
Heightened Def Con from 4.84837 to 4.84837
Heightened Def Con from 4.84837 to 4.84837
Heightened Def Con from 4.84837 to 4.84837
Heightened Def Con from 4.84837 to 4.84837
Heightened Def Con from 4.84837 to 4.84837
Heightened Def Con from 4.84837 to 4.84837
Heightened Def Con from 4.84837 to 4.84837
Heightened Def Con from 4.84837 to 4.84837
Heightened Def Con from 4.84837 to 4.84837
Heightened Def Con from 4.84837 to 4.84837
Heightened Def Con from 4.84837 +to 4.84837
Heightened Def Con from 4.84837 to 4.84837
Heightened Def Con from 4.84837 to 4.84837
Heightened Def Con from 4.84837 to 4.84837
Heightened Def Con from 4.84837 to 4.84837
Heightened Def Con from 4.84837 to 4.84837
Heightened Def Con from 4.84837 to 4.84837
Heightened Def Con from 4.84837 to 4.84837
Heightened Def Con from 4.84837 to 4.84837
Heightened Def Con from 4.84837 +to 4.84837
Heightened Def Con from 4.84837 to 4.84837
Heightened Def Con from 4.84837 +to 4.84837
Heightened Def Con from 4.84837 to 4.84837
Heightened Def Con from 4.84837 to 4.84837
Heightened Def Con from 4.84837 to 4.84837
Heightened Def Con from 4.84837 to 4.84837
Heightened Def Con from 4.84837 to 4.84837
Heightened Def Con from 4.84837 to 4.84837
Heightened Def Con from 4.84837 to 4.84837
Heightened Def Con from 4.84837 to 4.84837
Heightened Def Con from 4.84837 to 4.84837
Heightened Def Con from 4.84837 to 4.84837
Heightened Def Con from 4.84837 to 4.84837
Heightened Def Con from 4.84837 to 4.84837
Heightened Def Con from 4.84837 to 4.84837
Heightened Def Con from 4.84837 to 4.84837
Heightened Def Con from 4.84837 to 4.84837
Heightened Def Con from 4.84837 to 4.84837
Heightened Def Con from 4.84837 to 4.84837
Heightened Def Con from 4.84837 to 4.84837
Heightened Def Con from 4.84837 to 4.84837
Heightened Def Con from 4.84837 to 4.84837
Heightened Def Con from 4.84837 to 4.84837
Heightened Def Con from 4.84837 to 4.84837
Heightened Def Con from 4.84837 +to 4.84837
Heightened Def Con from 5.01315 to 5.01315
Heightened Def Con from 5.01315 to 5.01315
Heightened Def Con from 5.01315 to 5.01315
Heightened Def Con from 5.01315 to 5.01315
Heightened Def Con from 5.01315 to 5.01315
Heightened Def Con from 5.01315 to 5.01315
Heightened Def Con from 5.01315 to 5.01315
Heightened Def Con from 5.01315 to 5.01315
Heightened Def Con from 5.07752 to 5.07752
Heightened Def Con from 5.07752 to 5.07752
Heightened Def Con from 5.07752 to 5.07752
Heightened Def Con from 5.07752 to 5.07752
Heightened Def Con from 5.07752 to 5.07752
Heightened Def Con from 5.07752 to 5.07752
Heightened Def Con from 5.07752 to 5.07752
Heightened Def Con from 5.07752 to 5.07752
Heightened Def Con from 5.07752 to 5.07752
Heightened Def Con from 5.07752 to 5.07752
Heightened Def Con from 5.07752 to 5.07752
Heightened Def Con from 5.07752 to 5.07752
Heightened Def Con from 5.07752 to 5.07752
Heightened Def Con from 5.07752 to 5.07752
Heightened Def Con from 5.07752 to 5.07752
Heightened Def Con from 5.07752 to 5.07752
Heightened Def Con from 5.07752 to 5.07752
Heightened Def Con from 5.07752 to 5.07752
Heightened Def Con from 5.07752 to 5.07752
Heightened Def Con from 5.07752 to 5.07752
Heightened Def Con from 5.07752 to 5.07752
Heightened Def Con from 5.07752 to 5.07752
Heightened Def Con from 5.07752 to 5.07752
Heightened Def Con from 5.07752 to 5.07752
Heightened Def Con from 5.07752 +to 5.07752
Heightened Def Con from 5.07752 to 5.07752
Heightened Def Con from 5.07752 to 5.07752
Heightened Def Con from 5.07752 to 5.07752
Heightened Def Con from 5.07752 to 5.07752
Heightened Def Con from 5.07752 to 5.07752
Heightened Def Con from 5.07752 to 5.07752
Heightened Def Con from 5.07752 to 5.07752
Heightened Def Con from 5.07752 to 5.07752
Heightened Def Con from 5.07752 to 5.07752
Heightened Def Con from 5.07752 to 5.07752
Heightened Def Con from 5.07752 +to 5.07752
Heightened Def Con from 5.07752 to 5.07752
Heightened Def Con from 5.2567 to 5.2567
Heightened Def Con from 5.2567 to 5.2567
Heightened Def Con from 5.2567 +to 5.2567
Heightened Def Con from 5.2567 to 5.2567
Heightened Def Con from 5.2567 to 5.2567
Heightened Def Con from 5.2567 to 5.2567
Heightened Def Con from 5.2567 to 5.2567
Heightened Def Con from 5.25696 to 5.25696
Heightened Def Con from 5.25696 to 5.25696
Heightened Def Con from 5.25696 to 5.25696
Heightened Def Con from 5.25696 to 5.25696
Heightened Def Con from 5.25696 to 5.25696
Heightened Def Con from 5.25696 to 5.25696
Heightened Def Con from 5.25696 to 5.25696
Heightened Def Con from 5.25696 to 5.25696
Heightened Def Con from 5.25696 to 5.25696
Heightened Def Con from 5.25696 to 5.25696
Heightened Def Con from 5.25696 to 5.25696
Heightened Def Con from 5.25696 to 5.25696
Heightened Def Con from 5.25696 to 5.25696
Heightened Def Con from 5.25696 to 5.25696
Heightened Def Con from 5.25696 to 5.25696
Heightened Def Con from 5.25696 to 5.25696
Heightened Def Con from 5.25696 to 5.25696
Heightened Def Con from 5.25696 to 5.25696
Heightened Def Con from 5.25696 to 5.25696
Heightened Def Con from 5.25696 to 5.25696
Heightened Def Con from 5.25696 to 5.25696
Heightened Def Con from 5.25696 to 5.25696
Heightened Def Con from 5.25696 to 5.25696
Heightened Def Con from 5.25696 to 5.25696
Heightened Def Con from 5.25696 to 5.25696
Heightened Def Con from 5.25709 to 5.25709
Heightened Def Con from 5.25716 to 5.25716
Heightened Def Con from 5.25716 to 5.25716
Heightened Def Con from 5.25716 to 5.25716
Heightened Def Con from 5.25716 +to 5.25716
Heightened Def Con from 5.25718 to 5.25718
Heightened Def Con from 5.25718 to 5.25718
Heightened Def Con from 5.25718 to 5.25718
Heightened Def Con from 5.25718 to 5.25718
Heightened Def Con from 5.25718 to 5.25718
Heightened Def Con from 5.25718 to 5.25718
Heightened Def Con from 5.25718 to 5.25718
Heightened Def Con from 5.25718 to 5.25718
Heightened Def Con from 5.25718 to 5.25718
Heightened Def Con from 5.25718 to 5.25718
Heightened Def Con from 5.25718 to 5.25718
Heightened Def Con from 5.25718 to 5.25718
Heightened Def Con from 5.25718 to 5.25718
Heightened Def Con from 5.25718 to 5.25718
Heightened Def Con from 5.25718 to 5.25718
Heightened Def Con from 5.25718 to 5.25718
Heightened Def Con from 5.25718 to 5.25718
Heightened Def Con from 5.25718 to 5.25718
Heightened Def Con from 5.25718 to 5.25718
Heightened Def Con from 5.25718 to 5.25718
Heightened Def Con from 5.25718 to 5.25718
Heightened Def Con from 5.25718 to 5.25718
Heightened Def Con from 5.25718 to 5.25718
Heightened Def Con from 5.25718 to 5.25718
Heightened Def Con from 5.25718 to 5.25718
Heightened Def Con from 5.25718 to 5.25718
Heightened Def Con from 5.25718 to 5.25718
Heightened Def Con from 5.25718 to 5.25718
Heightened Def Con from 5.25718 to 5.25718
Heightened Def Con from 5.25718 to 5.25718
Heightened Def Con from 5.25718 +to 5.25718
Heightened Def Con from 5.25718 to 5.25718
Heightened Def Con from 5.25718 to 5.25718
Heightened Def Con from 5.25718 to 5.25718
Heightened Def Con from 5.25718 to 5.25718
Heightened Def Con from 5.25718 to 5.25718
Heightened Def Con from 5.25718 to 5.25718
Heightened Def Con from 5.25718 to 5.25718
Heightened Def Con from 5.25718 to 5.25718
Heightened Def Con from 5.25718 to 5.25718
Heightened Def Con from 5.25718 to 5.25718
Heightened Def Con from 5.25718 to 5.25718
Heightened Def Con from 5.25718 to 5.25718
Heightened Def Con from 5.25718 to 5.25718
Heightened Def Con from 5.25718 to 5.25718
Heightened Def Con from 5.25718 to 5.25718
Heightened Def Con from 5.25718 to 5.25718
Heightened Def Con from 5.25718 to 5.25718
Heightened Def Con from 5.25718 to 5.25718
Heightened Def Con from 5.25718 to 5.25718
Heightened Def Con from 5.42046 to 5.42046
Heightened Def Con from 5.42046 to 5.42046
Heightened Def Con from 5.42046 to 5.42046
Heightened Def Con from 5.42046 to 5.42046
Heightened Def Con from 5.42046 +to 5.42046
Heightened Def Con from 5.42046 to 5.42046
Heightened Def Con from 5.42046 to 5.42046
Heightened Def Con from 5.42046 to 5.42046
Heightened Def Con from 5.42046 to 5.42046
Heightened Def Con from 5.42046 to 5.42046
Heightened Def Con from 5.42046 to 5.42046
Heightened Def Con from 5.42046 to 5.42046
Heightened Def Con from 5.42046 to 5.42046
Heightened Def Con from 5.42046 +to 5.42046
Heightened Def Con from 5.42046 to 5.42046
Heightened Def Con from 5.42046 to 5.42046
Heightened Def Con from 5.42046 to 5.42046
Heightened Def Con from 5.42046 to 5.42046
Heightened Def Con from 5.42046 to 5.42046
Heightened Def Con from 5.42046 to 5.42046
Heightened Def Con from 5.42046 to 5.42046
Heightened Def Con from 5.42046 to 5.42046
Heightened Def Con from 5.42046 to 5.42046
Heightened Def Con from 5.42046 to 5.42046
Heightened Def Con from 5.42046 to 5.42046
Heightened Def Con from 5.42046 to 5.42046
Heightened Def Con from 5.42046 to 5.42046
Heightened Def Con from 5.42046 to 5.42046
Heightened Def Con from 5.42046 to 5.42046
Heightened Def Con from 5.42046 to 5.42046
Heightened Def Con from 5.42046 to 5.42046
Heightened Def Con from 5.42046 to 5.42046
Heightened Def Con from 5.42046 to 5.42046
Heightened Def Con from 5.42046 to 5.42046
Heightened Def Con from 5.42046 to 5.42046
Heightened Def Con from 5.42046 to 5.42046
Heightened Def Con from 5.42046 to 5.42046
Heightened Def Con from 5.42046 to 5.42046
Heightened Def Con from 5.42046 to 5.42046
Heightened Def Con from 5.42046 to 5.42046
Heightened Def Con from 5.42046 to 5.42046
Heightened Def Con from 5.42046 to 5.42046
Heightened Def Con from 5.42046 to 5.42046
Heightened Def Con from 5.42046 to 5.42046
Heightened Def Con from 5.42046 to 5.42046
Heightened Def Con from 5.42046 to 5.42046
Heightened Def Con from 5.42046 to 5.42046
Heightened Def Con from 5.42046 to 5.42046
Heightened Def Con from 5.42046 +to 5.42046
Heightened Def Con from 5.42046 to 5.42046
Heightened Def Con from 5.42046 to 5.42046
Heightened Def Con from 5.42046 to 5.42046
Heightened Def Con from 5.42046 to 5.42046
Heightened Def Con from 5.42046 to 5.42046
Heightened Def Con from 5.42046 to 5.42046
Heightened Def Con from 5.42046 to 5.42046
Heightened Def Con from 5.42046 to 5.42046
Heightened Def Con from 5.42046 to 5.42046
Heightened Def Con from 5.42046 +to 5.42046
Heightened Def Con from 5.42046 to 5.42046
Heightened Def Con from 5.42046 to 5.42046
Heightened Def Con from 5.42046 to 5.42046
Heightened Def Con from 5.42046 to 5.42046
Heightened Def Con from 5.42046 to 5.42046
Heightened Def Con from 5.42046 to 5.42046
Heightened Def Con from 5.42046 to 5.42046
Heightened Def Con from 5.42046 to 5.42046
Heightened Def Con from 5.42046 +to 5.42046
Heightened Def Con from 5.42046 to 5.42046
Heightened Def Con from 5.42046 to 5.42046
Heightened Def Con from 5.42046 to 5.42046
Heightened Def Con from 5.42046 to 5.42046
Heightened Def Con from 5.42046 to 5.42046
Heightened Def Con from 5.42046 to 5.42046
Heightened Def Con from 5.42046 to 5.42046
Heightened Def Con from 5.42046 to 5.42046
Heightened Def Con from 5.42046 to 5.42046
Heightened Def Con from 5.42046 to 5.42046
Heightened Def Con from 5.42046 to 5.42046
Heightened Def Con from 5.42046 to 5.42046
Heightened Def Con from 5.42046 to 5.42046
Heightened Def Con from 5.42046 to 5.42046
Heightened Def Con from 5.42046 to 5.42046
Heightened Def Con from 5.42046 to 5.42046
Heightened Def Con from 5.42046 to 5.42046
Heightened Def Con from 5.42046 to 5.42046
Heightened Def Con from 5.42046 +to 5.42046
Heightened Def Con from 5.42046 +to 5.42046
Heightened Def Con from 5.42046 to 5.42046
Heightened Def Con from 5.42046 to 5.42046
Heightened Def Con from 5.42046 to 5.42046
Heightened Def Con from 5.42046 to 5.42046
Heightened Def Con from 5.42046 to 5.42046
Heightened Def Con from 5.42046 to 5.42046
Heightened Def Con from 5.42046 to 5.42046
Heightened Def Con from 5.42046 to 5.42046
Heightened Def Con from 5.42046 to 5.42046
Heightened Def Con from 5.42046 to 5.42046
Heightened Def Con from 5.42046 to 5.42046
Heightened Def Con from 5.42046 to 5.42046
Heightened Def Con from 5.42046 to 5.42046
Heightened Def Con from 5.42046 to 5.42046
Heightened Def Con from 5.42046 to 5.42046
Heightened Def Con from 5.42046 to 5.42046
Heightened Def Con from 5.42046 to 5.42046
Heightened Def Con from 5.42046 to 5.42046
Heightened Def Con from 5.42046 to 5.42046
Heightened Def Con from 5.42046 to 5.42046
Heightened Def Con from 5.42046 to 5.42046
Heightened Def Con from 5.42046 to 5.42046
Heightened Def Con from 5.42046 to 5.42046
Heightened Def Con from 5.42046 to 5.42046
Heightened Def Con from 5.42046 to 5.42046
Heightened Def Con from 5.42046 to 5.42046
Heightened Def Con from 5.42046 to 5.42046
Heightened Def Con from 5.42046 to 5.42046
Heightened Def Con from 5.42046 to 5.42046
Heightened Def Con from 5.42046 to 5.42046
Heightened Def Con from 5.42046 to 5.42046
Heightened Def Con from 5.42046 to 5.42046
Heightened Def Con from 5.42046 to 5.42046
Heightened Def Con from 5.4605 to 5.4605
Heightened Def Con from 5.4605 to 5.4605
Heightened Def Con from 5.4605 to 5.4605
Heightened Def Con from 5.4605 to 5.4605
Heightened Def Con from 5.4605 to 5.4605
Heightened Def Con from 5.4605 to 5.4605
Heightened Def Con from 5.4605 to 5.4605
Heightened Def Con from 5.4605 to 5.4605
Heightened Def Con from 5.4605 to 5.4605
Heightened Def Con from 5.4605 to 5.4605
Heightened Def Con from 5.4605 to 5.4605
Heightened Def Con from 5.4605 to 5.4605
Heightened Def Con from 5.4605 to 5.4605
Heightened Def Con from 5.4605 to 5.4605
Heightened Def Con from 5.4605 to 5.4605
Heightened Def Con from 5.4605 to 5.4605
Heightened Def Con from 5.4605 to 5.4605
Heightened Def Con from 5.4605 to 5.4605
Heightened Def Con from 5.6625 to 5.6625
Heightened Def Con from 5.6625 to 5.6625
Heightened Def Con from 5.6625 to 5.6625
Heightened Def Con from 5.6625 to 5.6625
Heightened Def Con from 5.6625 to 5.6625
Heightened Def Con from 5.6625 to 5.6625
Heightened Def Con from 5.6625 to 5.6625
Heightened Def Con from 5.6625 to 5.6625
Heightened Def Con from 5.6625 to 5.6625
Heightened Def Con from 5.6625 to 5.6625
Heightened Def Con from 5.6625 to 5.6625
Heightened Def Con from 5.6625 to 5.6625
Heightened Def Con from 5.6625 to 5.6625
Heightened Def Con from 5.6625 to 5.6625
Heightened Def Con from 5.6625 to 5.6625
Heightened Def Con from 5.6625 to 5.6625
Heightened Def Con from 5.6625 to 5.6625
Heightened Def Con from 5.6625 to 5.6625
Heightened Def Con from 5.6625 to 5.6625
Heightened Def Con from 5.6625 to 5.6625
Heightened Def Con from 5.6625 to 5.6625
Heightened Def Con from 5.6625 to 5.6625
Heightened Def Con from 5.6625 to 5.6625
Heightened Def Con from 5.6625 to 5.6625
Heightened Def Con from 5.6625 to 5.6625
Heightened Def Con from 5.6625 to 5.6625
Heightened Def Con from 5.6625 to 5.6625
Heightened Def Con from 5.6625 to 5.6625
Heightened Def Con from 5.6625 to 5.6625
Heightened Def Con from 5.6625 to 5.6625
Heightened Def Con from 5.6625 to 5.6625
Heightened Def Con from 5.6625 to 5.6625
Heightened Def Con from 5.6625 to 5.6625
Heightened Def Con from 5.6625 to 5.6625
Heightened Def Con from 5.6625 to 5.6625
Heightened Def Con from 5.6625 to 5.6625
Heightened Def Con from 5.6625 to 5.6625
Heightened Def Con from 5.6625 to 5.6625
Heightened Def Con from 5.6625 to 5.6625
Heightened Def Con from 5.6625 to 5.6625
Heightened Def Con from 5.6625 to 5.6625
Heightened Def Con from 5.6625 to 5.6625
Heightened Def Con from 5.6625 to 5.6625
Heightened Def Con from 5.6625 to 5.6625
Heightened Def Con from 5.6625 to 5.6625
Heightened Def Con from 5.6625 to 5.6625
Heightened Def Con from 5.6625 to 5.6625
Heightened Def Con from 5.6625 to 5.6625
Heightened Def Con from 5.6625 to 5.6625
Heightened Def Con from 5.6625 to 5.6625
Heightened Def Con from 5.6625 to 5.6625
Heightened Def Con from 5.6625 to 5.6625
Heightened Def Con from 5.6625 to 5.6625
Heightened Def Con from 5.6625 to 5.6625
Heightened Def Con from 5.6625 +to 5.6625
Heightened Def Con from 5.6625 to 5.6625
Heightened Def Con from 5.6625 +to 5.6625
Heightened Def Con from 5.6625 to 5.6625
Heightened Def Con from 5.6625 to 5.6625
Heightened Def Con from 5.6625 to 5.6625
Heightened Def Con from 5.6625 to 5.6625
Heightened Def Con from 5.6625 to 5.6625
Heightened Def Con from 5.6625 to 5.6625
Heightened Def Con from 5.6625 to 5.6625
Heightened Def Con from 5.6625 to 5.6625
Heightened Def Con from 5.6625 to 5.6625
Heightened Def Con from 5.6625 to 5.6625
Heightened Def Con from 5.6625 to 5.6625
Heightened Def Con from 5.6625 to 5.6625
Heightened Def Con from 5.6625 to 5.6625
[...]
Heightened Def Con from 28.4415 to 28.4415
Heightened Def Con from 28.4415 to 28.4415
Heightened Def Con from 28.4415 to 28.4415
Heightened Def Con from 28.4415 to 28.4415
Heightened Def Con from 28.4415 +to 28.4415
Heightened Def Con from 28.4415 to 28.4415
Heightened Def Con from 28.4415 to 28.4415
Heightened Def Con from 28.4415 to 28.4415
Heightened Def Con from 28.4415 to 28.4415
Heightened Def Con from 28.4415 to 28.4415
Heightened Def Con from 28.4415 to 28.4415
Heightened Def Con from 28.4415 to 28.4415
Heightened Def Con from 28.4415 to 28.4415
Heightened Def Con from 28.6916 to 28.6916
Heightened Def Con from 28.6916 to 28.6916
Heightened Def Con from 28.6916 to 28.6916
Heightened Def Con from 28.6916 to 28.6916
Heightened Def Con from 28.6916 to 28.6916
Heightened Def Con from 28.6916 to 28.6916
Heightened Def Con from 28.6916 +to 28.6916
Heightened Def Con from 28.6916 to 28.6916
Heightened Def Con from 28.6916 to 28.6916
Heightened Def Con from 28.6916 to 28.6916
Heightened Def Con from 28.6916 to 28.6916
Heightened Def Con from 28.6916 to 28.6916
Heightened Def Con from 28.6916 to 28.6916
Heightened Def Con from 28.6916 to 28.6916
Heightened Def Con from 28.6916 to 28.6916
Heightened Def Con from 28.6916 to 28.6916
Heightened Def Con from 28.6916 to 28.6916
Heightened Def Con from 28.6916 to 28.6916
Heightened Def Con from 28.6916 to 28.6916
Heightened Def Con from 28.6916 to 28.6916
Heightened Def Con from 28.6916 to 28.6916
Heightened Def Con from 28.6916 to 28.6916
Heightened Def Con from 28.6916 to 28.6916
Heightened Def Con from 28.6916 to 28.6916
Heightened Def Con from 28.6916 to 28.6916
Heightened Def Con from 28.6916 +to 28.6916
Heightened Def Con from 28.6916 to 28.6916
Heightened Def Con from 28.6916 +to 28.6916
Heightened Def Con from 28.6916 to 28.6916
Heightened Def Con from 28.6916 to 28.6916
Heightened Def Con from 28.6916 to 28.6916
Heightened Def Con from 28.6916 to 28.6916
Heightened Def Con from 28.6916 to 28.6916
Heightened Def Con from 28.6916 to 28.6916
Heightened Def Con from 28.6916 to 28.6916
Heightened Def Con from 28.6916 to 28.6916
Heightened Def Con from 28.6916 to 28.6916
Heightened Def Con from 28.6916 +to 28.6916
Heightened Def Con from 28.6916 to 28.6916
Heightened Def Con from 28.6916 to 28.6916
Heightened Def Con from 28.6916 +to 28.6916
Heightened Def Con from 28.6916 to 28.6916
Heightened Def Con from 28.8488 to 28.8488
Heightened Def Con from 28.8488 to 28.8488
Heightened Def Con from 28.8488 to 28.8488
Heightened Def Con from 28.8488 to 28.8488
Heightened Def Con from 28.8488 to 28.8488
Heightened Def Con from 28.8488 to 28.8488
Heightened Def Con from 28.8488 to 28.8488
Heightened Def Con from 28.8488 to 28.8488
Heightened Def Con from 28.8488 to 28.8488
Heightened Def Con from 28.8488 to 28.8488
Heightened Def Con from 28.8488 to 28.8488
Heightened Def Con from 29.0642 to 29.0642
Heightened Def Con from 29.0642 to 29.0642
Heightened Def Con from 29.0642 to 29.0642
Heightened Def Con from 29.0642 to 29.0642
Heightened Def Con from 29.0642 to 29.0642
Heightened Def Con from 29.0642 to 29.0642
Heightened Def Con from 29.0642 to 29.0642
Heightened Def Con from 29.0642 to 29.0642
Heightened Def Con from 29.0642 to 29.0642
Heightened Def Con from 29.0642 to 29.0642
Heightened Def Con from 29.0642 to 29.0642
Heightened Def Con from 29.0642 to 29.0642
Heightened Def Con from 29.0642 to 29.0642
Heightened Def Con from 29.0642 +to 29.0642
Heightened Def Con from 29.0642 to 29.0642
Heightened Def Con from 29.0642 to 29.0642
Heightened Def Con from 29.0642 to 29.0642
Heightened Def Con from 29.0642 to 29.0642
Heightened Def Con from 29.0642 to 29.0642
Heightened Def Con from 29.0642 to 29.0642
Heightened Def Con from 29.0642 to 29.0642
Heightened Def Con from 29.0642 to 29.0642
Heightened Def Con from 29.0642 +to 29.0642
Heightened Def Con from 29.0642 to 29.0642
Heightened Def Con from 29.0642 to 29.0642
Heightened Def Con from 29.0642 to 29.0642
Heightened Def Con from 29.0642 to 29.0642
Heightened Def Con from 29.0642 to 29.0642
Heightened Def Con from 29.0642 to 29.0642
Heightened Def Con from 29.0642 +to 29.0642
Heightened Def Con from 29.0642 to 29.0642
Heightened Def Con from 29.0642 to 29.0642
Heightened Def Con from 29.0642 to 29.0642
Heightened Def Con from 29.0642 to 29.0642
Heightened Def Con from 29.0642 to 29.0642
Heightened Def Con from 29.0642 to 29.0642
Heightened Def Con from 29.0642 to 29.0642
Heightened Def Con from 29.0642 to 29.0642
Heightened Def Con from 29.0642 to 29.0642
Heightened Def Con from 29.0642 to 29.0642
Heightened Def Con from 29.0642 to 29.0642
Heightened Def Con from 29.0642 to 29.0642
Heightened Def Con from 29.0642 to 29.0642
Heightened Def Con from 29.2495 to 29.2495
Heightened Def Con from 29.2495 to 29.2495
Heightened Def Con from 29.2495 to 29.2495
Heightened Def Con from 29.2495 to 29.2495
Heightened Def Con from 29.2495 to 29.2495
Heightened Def Con from 29.2495 to 29.2495
Heightened Def Con from 29.2495 to 29.2495
Heightened Def Con from 29.2495 to 29.2495
Heightened Def Con from 29.2495 to 29.2495
Heightened Def Con from 29.2495 +to 29.2495
Heightened Def Con from 29.2495 to 29.2495
Heightened Def Con from 29.2495 to 29.2495
Heightened Def Con from 29.2495 to 29.2495
Heightened Def Con from 29.2495 to 29.2495
Heightened Def Con from 29.2495 +to 29.2495
Heightened Def Con from 29.2495 to 29.2495
Heightened Def Con from 29.2495 to 29.2495
Heightened Def Con from 29.2495 to 29.2495
Heightened Def Con from 29.2495 to 29.2495
Heightened Def Con from 29.2495 to 29.2495
Heightened Def Con from 29.2495 to 29.2495
Heightened Def Con from 29.2495 to 29.2495
Heightened Def Con from 29.2495 to 29.2495
Heightened Def Con from 29.2495 to 29.2495
Heightened Def Con from 29.2495 to 29.2495
Heightened Def Con from 29.2495 to 29.2495
Heightened Def Con from 29.2495 to 29.2495
Heightened Def Con from 29.2495 to 29.2495
Heightened Def Con from 29.2495 to 29.2495
Heightened Def Con from 29.2495 to 29.2495
Heightened Def Con from 29.2495 to 29.2495
Heightened Def Con from 29.2495 to 29.2495
Heightened Def Con from 29.2495 to 29.2495
Heightened Def Con from 29.2495 to 29.2495
Heightened Def Con from 29.2495 to 29.2495
Heightened Def Con from 29.2495 to 29.2495
Heightened Def Con from 29.2495 to 29.2495
Heightened Def Con from 29.2495 to 29.2495
Heightened Def Con from 29.2495 to 29.2495
Heightened Def Con from 29.2495 to 29.2495
Heightened Def Con from 29.2495 to 29.2495
Heightened Def Con from 29.2495 to 29.2495
Heightened Def Con from 29.2495 to 29.2495
Heightened Def Con from 29.2495 to 29.2495
Heightened Def Con from 29.2495 to 29.2495
Heightened Def Con from 29.2495 to 29.2495
Heightened Def Con from 29.2495 to 29.2495
Heightened Def Con from 29.2495 to 29.2495
Heightened Def Con from 29.2495 to 29.2495
Heightened Def Con from 29.2495 to 29.2495
Heightened Def Con from 29.2495 to 29.2495
Heightened Def Con from 29.2495 to 29.2495
Heightened Def Con from 29.2495 to 29.2495
Heightened Def Con from 29.2495 to 29.2495
Heightened Def Con from 29.2495 to 29.2495
Heightened Def Con from 29.2495 to 29.2495
Heightened Def Con from 29.2495 to 29.2495
Heightened Def Con from 29.2495 to 29.2495
Heightened Def Con from 29.2495 to 29.2495
Heightened Def Con from 29.2495 to 29.2495
Heightened Def Con from 29.4097 to 29.4097
Heightened Def Con from 29.4097 to 29.4097
Heightened Def Con from 29.4097 to 29.4097
Heightened Def Con from 29.4097 +to 29.4097
Heightened Def Con from 29.4097 to 29.4097
Heightened Def Con from 29.4097 to 29.4097
Heightened Def Con from 29.4097 to 29.4097
Heightened Def Con from 29.4097 to 29.4097
Heightened Def Con from 29.4097 to 29.4097
Heightened Def Con from 29.4097 to 29.4097
Heightened Def Con from 29.4097 to 29.4097
Heightened Def Con from 29.4097 to 29.4097
Heightened Def Con from 29.4097 to 29.4097
Heightened Def Con from 29.4097 to 29.4097
Heightened Def Con from 29.4097 to 29.4097
Heightened Def Con from 29.4097 to 29.4097
Heightened Def Con from 29.4097 to 29.4097
Heightened Def Con from 29.4097 to 29.4097
Heightened Def Con from 29.4097 to 29.4097
Heightened Def Con from 29.4097 to 29.4097
Heightened Def Con from 29.4097 to 29.4097
Heightened Def Con from 29.4097 to 29.4097
Heightened Def Con from 29.4097 to 29.4097
Heightened Def Con from 29.4097 to 29.4097
Heightened Def Con from 29.4097 to 29.4097
Heightened Def Con from 29.4097 to 29.4097
Heightened Def Con from 29.4097 to 29.4097
Heightened Def Con from 29.4097 to 29.4097
Heightened Def Con from 29.4097 to 29.4097
Heightened Def Con from 29.4097 to 29.4097
Heightened Def Con from 29.4097 to 29.4097
Heightened Def Con from 29.4097 to 29.4097
Heightened Def Con from 29.4097 to 29.4097
Heightened Def Con from 29.4097 to 29.4097
Heightened Def Con from 29.4097 to 29.4097
Heightened Def Con from 29.4097 to 29.4097
Heightened Def Con from 29.4097 to 29.4097
Heightened Def Con from 29.4097 to 29.4097
Heightened Def Con from 29.4097 to 29.4097
Heightened Def Con from 29.4097 to 29.4097
Heightened Def Con from 29.4097 to 29.4097
Heightened Def Con from 29.4097 to 29.4097
Heightened Def Con from 29.4097 to 29.4097
Heightened Def Con from 29.4097 to 29.4097
Heightened Def Con from 29.4097 to 29.4097
Heightened Def Con from 29.4097 to 29.4097
Heightened Def Con from 29.4097 to 29.4097
Heightened Def Con from 29.4097 to 29.4097
Heightened Def Con from 29.4097 to 29.4097
Heightened Def Con from 29.4097 +to 29.4097
Heightened Def Con from 29.4097 to 29.4097
Heightened Def Con from 29.4097 to 29.4097
Heightened Def Con from 29.4097 to 29.4097
Heightened Def Con from 29.4097 to 29.4097
Heightened Def Con from 29.4097 to 29.4097
Heightened Def Con from 29.4097 to 29.4097
Heightened Def Con from 29.4097 to 29.4097
Heightened Def Con from 29.4097 to 29.4097
Heightened Def Con from 29.4097 to 29.4097
Heightened Def Con from 29.4097 to 29.4097
Heightened Def Con from 29.4097 +to 29.4097
Heightened Def Con from 29.4097 to 29.4097
Heightened Def Con from 29.4097 to 29.4097
Heightened Def Con from 29.4097 to 29.4097
Heightened Def Con from 29.4097 to 29.4097
Heightened Def Con from 29.4097 to 29.4097
Heightened Def Con from 29.4097 to 29.4097
Heightened Def Con from 29.4097 to 29.4097
Heightened Def Con from 29.4097 to 29.4097
Heightened Def Con from 29.4097 to 29.4097
Heightened Def Con from 29.4097 to 29.4097
Heightened Def Con from 29.4097 to 29.4097
Heightened Def Con from 29.4097 to 29.4097
Heightened Def Con from 29.4097 to 29.4097
Heightened Def Con from 29.4097 to 29.4097
Heightened Def Con from 29.4097 to 29.4097
Heightened Def Con from 29.4097 ++to 29.4097
Heightened Def Con from 29.4097 to 29.4097
Heightened Def Con from 29.4097 to 29.4097
Heightened Def Con from 29.4097 to 29.4097
Heightened Def Con from 29.4097 to 29.4097
Heightened Def Con from 29.4097 to 29.4097
Heightened Def Con from 29.4097 to 29.4097
Heightened Def Con from 29.4097 to 29.4097
Heightened Def Con from 29.4097 to 29.4097
Heightened Def Con from 29.4097 to 29.4097
Heightened Def Con from 29.4097 to 29.4097
Heightened Def Con from 29.4097 to 29.4097
Heightened Def Con from 29.4097 to 29.4097
Heightened Def Con from 29.4097 to 29.4097
Heightened Def Con from 29.4097 to 29.4097
Heightened Def Con from 29.4097 to 29.4097
Heightened Def Con from 29.4097 to 29.4097
Heightened Def Con from 29.4097 to 29.4097
Heightened Def Con from 29.4097 to 29.4097
Heightened Def Con from 29.4097 to 29.4097
Heightened Def Con from 29.4097 to 29.4097
Heightened Def Con from 29.4097 to 29.4097
Heightened Def Con from 29.4097 to 29.4097
Heightened Def Con from 29.4097 to 29.4097
Heightened Def Con from 29.4097 to 29.4097
Heightened Def Con from 29.4097 to 29.4097
Heightened Def Con from 29.4097 to 29.4097
Heightened Def Con from 29.4097 to 29.4097
Heightened Def Con from 29.4097 to 29.4097
Heightened Def Con from 29.4097 to 29.4097
Heightened Def Con from 29.4097 to 29.4097
Heightened Def Con from 29.4097 to 29.4097
Heightened Def Con from 29.4097 to 29.4097
Heightened Def Con from 29.4097 to 29.4097
Heightened Def Con from 29.4097 to 29.4097
Heightened Def Con from 29.4554 +to 29.4554
Heightened Def Con from 29.4554 +to 29.4554
Heightened Def Con from 29.4554 to 29.4554
Heightened Def Con from 29.4554 to 29.4554
Heightened Def Con from 29.4554 to 29.4554
Heightened Def Con from 29.4554 to 29.4554
Heightened Def Con from 29.4554 to 29.4554
Heightened Def Con from 29.4554 to 29.4554
Heightened Def Con from 29.4554 to 29.4554
Heightened Def Con from 29.4554 to 29.4554
Heightened Def Con from 29.4554 +to 29.4554
Heightened Def Con from 29.4554 to 29.4554
Heightened Def Con from 29.4554 to 29.4554
Heightened Def Con from 29.4554 to 29.4554
Heightened Def Con from 29.4554 +++to 29.4554
Heightened Def Con from 29.4554 +to 29.4554
Heightened Def Con from 29.4554 to 29.4554
Heightened Def Con from 29.4554 +to 29.4554
Heightened Def Con from 29.4554 to 29.4554
Heightened Def Con from 29.4554 to 29.4554
Heightened Def Con from 29.4554 to 29.4554
Heightened Def Con from 29.4554 to 29.4554
Heightened Def Con from 29.4554 to 29.4554
Heightened Def Con from 29.4554 to 29.4554
Heightened Def Con from 29.4554 to 29.4554
Heightened Def Con from 29.4554 to 29.4554
Heightened Def Con from 29.4554 +to 29.4554
Heightened Def Con from 29.4554 to 29.4554
Heightened Def Con from 29.4554 to 29.4554
Heightened Def Con from 29.4554 to 29.4554
Heightened Def Con from 29.4554 to 29.4554
Heightened Def Con from 29.4554 to 29.4554
Heightened Def Con from 29.4554 to 29.4554
Heightened Def Con from 29.4554 to 29.4554
Heightened Def Con from 29.4554 to 29.4554
Heightened Def Con from 29.4554 to 29.4554
Heightened Def Con from 29.4554 to 29.4554
Heightened Def Con from 29.4554 to 29.4554
Heightened Def Con from 29.4554 to 29.4554
Heightened Def Con from 29.4554 to 29.4554
Heightened Def Con from 29.4554 to 29.4554
Heightened Def Con from 29.4554 to 29.4554
Heightened Def Con from 29.4554 to 29.4554
Heightened Def Con from 29.4554 to 29.4554
Heightened Def Con from 29.6625 to 29.6625
Heightened Def Con from 29.6625 to 29.6625
Heightened Def Con from 29.6625 to 29.6625
Heightened Def Con from 29.6625 to 29.6625
Heightened Def Con from 29.6625 to 29.6625
Heightened Def Con from 29.6625 +to 29.6625
Heightened Def Con from 29.6625 to 29.6625
Heightened Def Con from 29.6625 to 29.6625
Heightened Def Con from 29.6625 to 29.6625
Heightened Def Con from 29.6625 to 29.6625
Heightened Def Con from 29.8296 to 29.8296
Heightened Def Con from 29.8296 to 29.8296
Heightened Def Con from 29.8296 to 29.8296
Heightened Def Con from 29.8296 to 29.8296
Heightened Def Con from 29.8296 to 29.8296
Heightened Def Con from 29.8296 to 29.8296
Heightened Def Con from 29.8296 to 29.8296
Heightened Def Con from 29.8296 to 29.8296
Heightened Def Con from 29.8296 to 29.8296
Heightened Def Con from 29.8296 to 29.8296
Heightened Def Con from 29.8296 +to 29.8296
Heightened Def Con from 29.8296 to 29.8296
Heightened Def Con from 29.8296 to 29.8296
Heightened Def Con from 29.8296 to 29.8296
Heightened Def Con from 29.8296 to 29.8296
Heightened Def Con from 29.8296 to 29.8296
Heightened Def Con from 29.8296 to 29.8296
Heightened Def Con from 29.8296 to 29.8296
Heightened Def Con from 29.8296 to 29.8296
Heightened Def Con from 29.8296 to 29.8296
Heightened Def Con from 29.8296 to 29.8296
Heightened Def Con from 29.8296 to 29.8296
Heightened Def Con from 29.8296 +to 29.8296
Heightened Def Con from 29.8296 to 29.8296
Heightened Def Con from 29.8296 to 29.8296
Heightened Def Con from 29.8296 to 29.8296
Heightened Def Con from 29.8296 to 29.8296
Heightened Def Con from 29.8296 to 29.8296
Heightened Def Con from 29.8296 to 29.8296
Heightened Def Con from 29.8296 to 29.8296
Heightened Def Con from 29.8296 to 29.8296
Heightened Def Con from 29.8296 to 29.8296
Heightened Def Con from 29.8296 to 29.8296
Heightened Def Con from 29.8296 to 29.8296
Heightened Def Con from 29.8296 to 29.8296
Heightened Def Con from 29.8296 to 29.8296
Heightened Def Con from 29.8296 to 29.8296
Heightened Def Con from 29.8296 to 29.8296
Heightened Def Con from 29.8296 to 29.8296
Heightened Def Con from 29.8296 +to 29.8296
Heightened Def Con from 29.8296 to 29.8296
Heightened Def Con from 29.8296 to 29.8296
Heightened Def Con from 29.8296 to 29.8296
Heightened Def Con from 29.8296 to 29.8296
Heightened Def Con from 29.8296 to 29.8296
Heightened Def Con from 29.8296 to 29.8296
Heightened Def Con from 29.8296 to 29.8296
Heightened Def Con from 29.8296 +to 29.8296
Heightened Def Con from 29.8296 to 29.8296
Heightened Def Con from 29.8296 to 29.8296
Heightened Def Con from 29.8296 to 29.8296
Heightened Def Con from 29.8296 to 29.8296
Heightened Def Con from 29.8296 to 29.8296
Heightened Def Con from 29.8296 to 29.8296
Heightened Def Con from 29.8296 to 29.8296
Heightened Def Con from 29.8296 to 29.8296
Heightened Def Con from 29.8296 to 29.8296
Heightened Def Con from 29.8296 to 29.8296
Heightened Def Con from 29.8296 to 29.8296
Heightened Def Con from 29.8296 to 29.8296
Heightened Def Con from 29.8296 to 29.8296
Heightened Def Con from 29.8296 to 29.8296
Heightened Def Con from 29.8296 to 29.8296
Heightened Def Con from 29.8296 to 29.8296
Heightened Def Con from 29.8296 to 29.8296
Heightened Def Con from 29.8296 to 29.8296
Heightened Def Con from 29.8296 to 29.8296
Heightened Def Con from 29.8296 to 29.8296
Heightened Def Con from 29.8296 to 29.8296
Heightened Def Con from 29.8296 to 29.8296
Heightened Def Con from 29.8296 to 29.8296
Heightened Def Con from 29.8296 to 29.8296
Heightened Def Con from 29.8296 to 29.8296
Heightened Def Con from 29.8296 to 29.8296
Heightened Def Con from 29.8296 to 29.8296
Heightened Def Con from 29.8296 to 29.8296
Heightened Def Con from 29.8296 to 29.8296
Heightened Def Con from 29.8296 to 29.8296
Heightened Def Con from 29.8296 to 29.8296
Heightened Def Con from 29.8296 to 29.8296
Heightened Def Con from 29.8296 to 29.8296
Heightened Def Con from 29.8296 to 29.8296
Heightened Def Con from 29.8296 to 29.8296
Heightened Def Con from 29.8296 to 29.8296
Heightened Def Con from 29.8425 to 29.8425
Heightened Def Con from 29.8425 to 29.8425
Heightened Def Con from 29.8425 to 29.8425
Heightened Def Con from 29.8425 to 29.8425
Heightened Def Con from 29.8425 to 29.8425
Heightened Def Con from 29.8425 to 29.8425
Heightened Def Con from 29.8425 to 29.8425
Heightened Def Con from 29.8425 to 29.8425
Heightened Def Con from 29.8425 to 29.8425
Heightened Def Con from 29.8425 to 29.8425
Heightened Def Con from 29.8425 to 29.8425
Heightened Def Con from 29.8425 to 29.8425
Heightened Def Con from 29.8425 to 29.8425
Heightened Def Con from 29.8425 to 29.8425
Heightened Def Con from 29.8425 to 29.8425
Heightened Def Con from 29.8425 to 29.8425
Heightened Def Con from 29.8425 to 29.8425
Heightened Def Con from 29.8425 to 29.8425
Heightened Def Con from 29.8425 to 29.8425
Heightened Def Con from 29.8425 to 29.8425
Heightened Def Con from 29.8425 +to 29.8425
Heightened Def Con from 29.8425 to 29.8425
Heightened Def Con from 29.8425 to 29.8425
Heightened Def Con from 29.8425 to 29.8425
Heightened Def Con from 29.8425 to 29.8425
Heightened Def Con from 29.8425 to 29.8425
Heightened Def Con from 29.8425 to 29.8425
Heightened Def Con from 29.8425 to 29.8425
Heightened Def Con from 29.8425 to 29.8425
Heightened Def Con from 29.8425 to 29.8425
Heightened Def Con from 29.8425 to 29.8425
Heightened Def Con from 29.8425 to 29.8425
Heightened Def Con from 29.8425 to 29.8425
Heightened Def Con from 29.8425 to 29.8425
Heightened Def Con from 29.8425 to 29.8425

Date: Mon Sep 21 10:02:31 2020
Total elapsed time: 95.146 seconds.

tnom = 27
temp = 27
method = modified trap
totiter = 1330430
traniter = 1327792
tranpoints = 208506
accept = 132116
rejected = 86181
matrix size = 125
fillins = 1177
solver = Normal
Thread vector: 29.0/21.1[3] 16.7/12.5[3] 14.0/8.4[3] 1.9/2.8[1]  2592/500
Matrix Compiler1: 201.86 KB object code size  68.7/31.6/[19.1]
Matrix Compiler2: 30.80 KB object code size  8.0/8.8/[2.6]

