Circuit: * C:\Users\dvone\Desktop\Engineering 3.2\E-Design 344\GitRepo\E344\LTSpice\Assignment 2\21785155_FullRange.asc

Early termination of direct N-R iteration.
Direct Newton iteration failed to find .op point.  (Use ".option noopiter" to skip.)
Starting Gmin stepping
Gmin = 10
vernier = 0.5
vernier = 0.25
vernier = 0.125
Gmin = 5.5165
vernier = 0.0625
vernier = 0.03125
vernier = 0.015625
vernier = 0.0078125
Gmin = 5.49501
vernier = 0.00390625
vernier = 0.00195313
vernier = 0.000976563
vernier = 0.000488281
Gmin = 5.50104
Gmin = 0
Gmin stepping failed

Starting source stepping with srcstepmethod=0
Source Step = 3.0303%
Source Step = 33.3333%
Source Step = 63.6364%
Source Step = 72.9167%
Source Step = 73.3902%
Source Step = 73.8636%
Source Step = 74.3371%
Source Step = 74.8106%
vernier = 0.0234375
Source Step = 75.3551%
Source Step = 76.0653%
Source Step = 76.7756%
Source Step = 77.4858%
Source Step = 78.196%
vernier = 0.0351563
Source Step = 78.9773%
Source Step = 80.0426%
Source Step = 81.108%
Source Step = 82.1733%
Source Step = 83.2386%
vernier = 0.0527344
Source Step = 84.3572%
Source Step = 85.9553%
Source Step = 87.5533%
Source Step = 89.1513%
Source Step = 90.7493%
Source Step = 92.3473%
vernier = 0.0791016
Source Step = 94.7443%
Source Step = 97.1413%
Source Step = 99.5384%
Source stepping succeeded in finding the operating point.

Changing Tseed to 1e-008
Changing Tseed to 1e-010
Changing Tseed to 1e-007
Heightened Def Con from 1.00183e-007 to 1.02183e-007
Heightened Def Con from 1.02433e-007 to 1.03433e-007
Heightened Def Con from 1.03457e-007 to 1.03598e-007
Heightened Def Con from 1.03685e-007 to 1.03935e-007
Heightened Def Con from 1.03935e-007 to 1.0506e-007
Heightened Def Con from 1.05482e-007 to 1.05732e-007
Heightened Def Con from 1.06252e-007 to 1.07267e-007
Heightened Def Con from 1.07299e-007 to 1.08299e-007
Heightened Def Con from 1.08299e-007 to 1.10299e-007
Heightened Def Con from 1.10439e-007 to 1.10689e-007
Heightened Def Con from 1.10693e-007 to 1.10709e-007
Heightened Def Con from 1.10709e-007 to 1.11724e-007
Heightened Def Con from 1.11724e-007 to 1.11865e-007
Heightened Def Con from 1.11865e-007 to 1.1299e-007
Heightened Def Con from 1.13487e-007 to 1.1349e-007
Heightened Def Con from 1.13491e-007 to 1.13618e-007
Heightened Def Con from 1.13618e-007 to 1.15618e-007
Heightened Def Con from 1.2462e-007 to 1.2662e-007
Heightened Def Con from 1.2662e-007 to 1.2862e-007
Heightened Def Con from 0.0329 to 0.0329
Heightened Def Con from 0.0329 to 0.0329
Heightened Def Con from 0.0329 to 0.0329
Heightened Def Con from 0.0329 to 0.0329
Heightened Def Con from 0.0330551 to 0.0330551
Heightened Def Con from 0.0330551 to 0.0330551
Heightened Def Con from 0.0330551 to 0.0330551
Heightened Def Con from 0.0330551 to 0.0330551
Heightened Def Con from 0.0330551 to 0.0330551
Heightened Def Con from 0.0330551 to 0.0330551
Heightened Def Con from 0.0330551 to 0.0330551
Heightened Def Con from 0.0330551 to 0.0330551
Heightened Def Con from 0.0330551 to 0.0330551
Heightened Def Con from 0.0330551 to 0.0330551
Heightened Def Con from 0.0330551 to 0.0330551
Heightened Def Con from 0.0330551 to 0.0330551
Heightened Def Con from 0.0330551 to 0.0330551
Heightened Def Con from 0.0330551 to 0.0330551
Heightened Def Con from 0.0330551 to 0.0330551
Heightened Def Con from 0.0330551 to 0.0330551
Heightened Def Con from 0.0330551 to 0.0330551
Heightened Def Con from 0.0330551 to 0.0330551
Heightened Def Con from 0.0330551 to 0.0330551
Heightened Def Con from 0.0330551 to 0.0330551
Heightened Def Con from 0.0330551 to 0.0330551
Heightened Def Con from 0.0330551 to 0.0330551
Heightened Def Con from 0.0330551 to 0.0330551
Heightened Def Con from 0.0330551 to 0.0330551
Heightened Def Con from 0.0330551 to 0.0330551
Heightened Def Con from 0.0330551 to 0.0330551
Heightened Def Con from 0.0330552 to 0.0330552
Heightened Def Con from 0.0330552 to 0.0330552
Heightened Def Con from 0.0330552 to 0.0330552
Heightened Def Con from 0.0330552 to 0.0330552
Heightened Def Con from 0.0330552 to 0.0330552
Heightened Def Con from 0.0330552 to 0.0330552
Heightened Def Con from 0.0330552 to 0.0330552
Heightened Def Con from 0.0330552 to 0.0330552
Heightened Def Con from 0.0330552 to 0.0330552
Heightened Def Con from 0.0330552 to 0.0330552
Heightened Def Con from 0.0330552 to 0.0330552
Heightened Def Con from 0.0330552 to 0.0330552
Heightened Def Con from 0.0330552 to 0.0330552
Heightened Def Con from 0.0330552 to 0.0330552
Heightened Def Con from 0.0330552 to 0.0330552
Heightened Def Con from 0.0330552 to 0.0330552
Heightened Def Con from 0.0330552 to 0.0330552
Heightened Def Con from 0.0330552 to 0.0330552
Heightened Def Con from 0.0330552 to 0.0330552
Heightened Def Con from 0.284825 to 0.284825
Heightened Def Con from 0.284825 to 0.284825
Heightened Def Con from 0.284825 to 0.284825
Heightened Def Con from 0.284825 to 0.284825
Heightened Def Con from 0.284825 to 0.284825
Heightened Def Con from 0.284825 to 0.284825
Heightened Def Con from 0.284825 to 0.284825
Heightened Def Con from 0.284825 to 0.284825
Heightened Def Con from 0.284825 to 0.284825
Heightened Def Con from 0.284825 +to 0.284825
Heightened Def Con from 0.284825 to 0.284825
Heightened Def Con from 0.284825 to 0.284825
Heightened Def Con from 0.284825 to 0.284825
Heightened Def Con from 0.284825 to 0.284825
Heightened Def Con from 0.284825 to 0.284825
Heightened Def Con from 0.284825 to 0.284825
Heightened Def Con from 0.284825 to 0.284825
Heightened Def Con from 0.284825 to 0.284825
Heightened Def Con from 0.284825 to 0.284825
Heightened Def Con from 0.284825 to 0.284825
Heightened Def Con from 0.284825 to 0.284825
Heightened Def Con from 0.284825 to 0.284825
Heightened Def Con from 0.284825 to 0.284825
Heightened Def Con from 0.284825 to 0.284825
Heightened Def Con from 0.284825 to 0.284825
Heightened Def Con from 0.284825 to 0.284825
Heightened Def Con from 0.284825 to 0.284825
Heightened Def Con from 0.284825 to 0.284825
Heightened Def Con from 0.284825 +to 0.284825
Heightened Def Con from 0.284825 to 0.284825
Heightened Def Con from 0.284825 to 0.284825
Heightened Def Con from 0.284825 to 0.284825
Heightened Def Con from 0.284825 to 0.284825
Heightened Def Con from 0.284825 to 0.284825
Heightened Def Con from 0.284825 to 0.284825
Heightened Def Con from 0.284825 to 0.284825
Heightened Def Con from 0.284825 to 0.284825
Heightened Def Con from 0.284825 to 0.284825
Heightened Def Con from 0.284825 to 0.284825
Heightened Def Con from 0.284825 to 0.284825
Heightened Def Con from 0.284825 to 0.284825
Heightened Def Con from 0.284825 to 0.284825
Heightened Def Con from 0.284825 to 0.284825
Heightened Def Con from 0.284825 to 0.284825
Heightened Def Con from 0.284825 to 0.284825
Heightened Def Con from 0.284825 to 0.284825
Heightened Def Con from 0.284825 to 0.284825
Heightened Def Con from 0.284825 to 0.284825
Heightened Def Con from 0.284825 to 0.284825
Heightened Def Con from 0.284825 to 0.284825
Heightened Def Con from 0.284825 to 0.284825
Heightened Def Con from 0.284825 to 0.284825
Heightened Def Con from 0.284825 to 0.284825
Heightened Def Con from 0.284825 to 0.284825
Heightened Def Con from 0.284825 to 0.284825
Heightened Def Con from 0.284825 to 0.284825
Heightened Def Con from 0.284825 to 0.284825
Heightened Def Con from 0.284825 to 0.284825
Heightened Def Con from 0.284825 to 0.284825
Heightened Def Con from 0.284825 to 0.284825
Heightened Def Con from 0.284825 +to 0.284825
Heightened Def Con from 0.284825 to 0.284825
Heightened Def Con from 0.284825 to 0.284825
Heightened Def Con from 0.284825 to 0.284825
Heightened Def Con from 0.284825 to 0.284825
Heightened Def Con from 0.284825 to 0.284825
Heightened Def Con from 0.284825 to 0.284825
Heightened Def Con from 0.284825 to 0.284825
Heightened Def Con from 0.284825 to 0.284825
Heightened Def Con from 0.284825 to 0.284825
Heightened Def Con from 0.45337 to 0.45337
Heightened Def Con from 0.45337 to 0.45337
Heightened Def Con from 0.45337 to 0.45337
Heightened Def Con from 0.45337 to 0.45337
Heightened Def Con from 0.45337 to 0.45337
Heightened Def Con from 0.45337 to 0.45337
Heightened Def Con from 0.45337 to 0.45337
Heightened Def Con from 0.45337 to 0.45337
Heightened Def Con from 0.45337 to 0.45337
Heightened Def Con from 0.45337 to 0.45337
Heightened Def Con from 0.45337 to 0.45337
Heightened Def Con from 0.45337 to 0.45337
Heightened Def Con from 0.45337 to 0.45337
Heightened Def Con from 0.45337 to 0.45337
Heightened Def Con from 0.45337 to 0.45337
Heightened Def Con from 0.45337 to 0.45337
Heightened Def Con from 0.45337 to 0.45337
Heightened Def Con from 0.45337 to 0.45337
Heightened Def Con from 0.45337 to 0.45337
Heightened Def Con from 0.45337 to 0.45337
Heightened Def Con from 0.45337 +to 0.45337
Heightened Def Con from 0.45337 to 0.45337
Heightened Def Con from 0.45337 to 0.45337
Heightened Def Con from 0.45337 to 0.45337
Heightened Def Con from 0.45337 +to 0.45337
Heightened Def Con from 0.45337 to 0.45337
Heightened Def Con from 0.45337 to 0.45337
Heightened Def Con from 0.45337 to 0.45337
Heightened Def Con from 0.45337 to 0.45337
Heightened Def Con from 0.54132 +to 0.54132
Heightened Def Con from 0.54132 to 0.54132
Heightened Def Con from 0.696147 to 0.696147
Heightened Def Con from 0.696147 to 0.696147
Heightened Def Con from 0.696147 to 0.696147
Heightened Def Con from 0.696147 to 0.696147
Heightened Def Con from 0.696147 to 0.696147
Heightened Def Con from 0.696147 to 0.696147
Heightened Def Con from 0.696147 to 0.696147
Heightened Def Con from 0.696147 to 0.696147
Heightened Def Con from 0.696147 to 0.696147
Heightened Def Con from 0.696147 to 0.696147
Heightened Def Con from 0.696147 to 0.696147
Heightened Def Con from 0.696147 to 0.696147
Heightened Def Con from 0.696147 to 0.696147
Heightened Def Con from 0.696147 to 0.696147
Heightened Def Con from 0.696147 to 0.696147
Heightened Def Con from 0.696147 to 0.696147
Heightened Def Con from 0.696147 to 0.696147
Heightened Def Con from 0.696147 to 0.696147
Heightened Def Con from 0.696147 to 0.696147
Heightened Def Con from 0.696147 to 0.696147
Heightened Def Con from 0.696147 to 0.696147
Heightened Def Con from 0.696147 to 0.696147
Heightened Def Con from 0.696147 to 0.696147
Heightened Def Con from 0.696147 to 0.696147
Heightened Def Con from 0.696147 to 0.696147
Heightened Def Con from 0.696147 to 0.696147
Heightened Def Con from 0.696147 +to 0.696147
Heightened Def Con from 0.696147 to 0.696147
Heightened Def Con from 0.696147 to 0.696147
Heightened Def Con from 0.696147 to 0.696147
Heightened Def Con from 0.696147 to 0.696147
Heightened Def Con from 0.696147 to 0.696147
Heightened Def Con from 0.696147 to 0.696147
Heightened Def Con from 0.696147 to 0.696147
Heightened Def Con from 0.696147 to 0.696147
Heightened Def Con from 0.696147 to 0.696147
Heightened Def Con from 0.696147 to 0.696147
Heightened Def Con from 0.853718 to 0.853718
Heightened Def Con from 0.853718 to 0.853718
Heightened Def Con from 0.853718 to 0.853718
Heightened Def Con from 0.853734 to 0.853734
Heightened Def Con from 0.853734 to 0.853734
Heightened Def Con from 0.853734 to 0.853734
Heightened Def Con from 0.853734 to 0.853734
Heightened Def Con from 0.853734 to 0.853734
Heightened Def Con from 0.853734 to 0.853734
Heightened Def Con from 0.853734 to 0.853734
Heightened Def Con from 0.853734 to 0.853734
Heightened Def Con from 0.853734 to 0.853734
Heightened Def Con from 0.853734 to 0.853734
Heightened Def Con from 0.853734 to 0.853734
Heightened Def Con from 0.853734 to 0.853734
Heightened Def Con from 1.04455 to 1.04455
Heightened Def Con from 1.04455 to 1.04455
Heightened Def Con from 1.04455 to 1.04455
Heightened Def Con from 1.04455 to 1.04455
Heightened Def Con from 1.04455 to 1.04455
Heightened Def Con from 1.04455 to 1.04455
Heightened Def Con from 1.04455 to 1.04455
Heightened Def Con from 1.09505 to 1.09505
Heightened Def Con from 1.09505 to 1.09505
Heightened Def Con from 1.09505 to 1.09505
Heightened Def Con from 1.09505 +to 1.09505
Heightened Def Con from 1.09505 +to 1.09505
Heightened Def Con from 1.09505 to 1.09505
Heightened Def Con from 1.09505 to 1.09505
Heightened Def Con from 1.09505 to 1.09505
Heightened Def Con from 1.09505 to 1.09505
Heightened Def Con from 1.09505 to 1.09505
Heightened Def Con from 1.09505 to 1.09505
Heightened Def Con from 1.09505 to 1.09505
Heightened Def Con from 1.09505 to 1.09505
Heightened Def Con from 1.09505 to 1.09505
Heightened Def Con from 1.09505 to 1.09505
Heightened Def Con from 1.09505 to 1.09505
Heightened Def Con from 1.09505 to 1.09505
Heightened Def Con from 1.09505 to 1.09505
Heightened Def Con from 1.09505 to 1.09505
Heightened Def Con from 1.09505 to 1.09505
Heightened Def Con from 1.09505 to 1.09505
Heightened Def Con from 1.09505 to 1.09505
Heightened Def Con from 1.09505 to 1.09505
Heightened Def Con from 1.09505 to 1.09505
Heightened Def Con from 1.09505 +to 1.09505
Heightened Def Con from 1.09505 to 1.09505
Heightened Def Con from 1.09505 to 1.09505
Heightened Def Con from 1.09505 to 1.09505
Heightened Def Con from 1.09505 to 1.09505
Heightened Def Con from 1.09505 to 1.09505
Heightened Def Con from 1.09505 +to 1.09505
Heightened Def Con from 1.09505 to 1.09505
Heightened Def Con from 1.09505 to 1.09505
Heightened Def Con from 1.09505 to 1.09505
Heightened Def Con from 1.09505 to 1.09505
Heightened Def Con from 1.09505 to 1.09505
Heightened Def Con from 1.09505 to 1.09505
Heightened Def Con from 1.09505 to 1.09505
Heightened Def Con from 1.09505 to 1.09505
Heightened Def Con from 1.09505 to 1.09505
Heightened Def Con from 1.09505 to 1.09505
Heightened Def Con from 1.09505 to 1.09505
Heightened Def Con from 1.09505 to 1.09505
Heightened Def Con from 1.09505 to 1.09505
Heightened Def Con from 1.09505 to 1.09505
Heightened Def Con from 1.09505 to 1.09505
Heightened Def Con from 1.09505 to 1.09505
Heightened Def Con from 1.09505 to 1.09505
Heightened Def Con from 1.09505 to 1.09505
Heightened Def Con from 1.09505 to 1.09505
Heightened Def Con from 1.09505 to 1.09505
Heightened Def Con from 1.09505 +to 1.09505
Heightened Def Con from 1.09505 to 1.09505
Heightened Def Con from 1.09505 to 1.09505
Heightened Def Con from 1.09505 to 1.09505
Heightened Def Con from 1.09505 to 1.09505
Heightened Def Con from 1.09505 to 1.09505
Heightened Def Con from 1.09505 to 1.09505
Heightened Def Con from 1.09505 to 1.09505
Heightened Def Con from 1.09505 to 1.09505
Heightened Def Con from 1.09505 to 1.09505
Heightened Def Con from 1.09505 to 1.09505
Heightened Def Con from 1.09505 to 1.09505
Heightened Def Con from 1.09505 to 1.09505
Heightened Def Con from 1.09505 to 1.09505
Heightened Def Con from 1.09505 to 1.09505
Heightened Def Con from 1.09505 to 1.09505
Heightened Def Con from 1.09505 to 1.09505
Heightened Def Con from 1.09505 to 1.09505
Heightened Def Con from 1.09505 to 1.09505
Heightened Def Con from 1.09505 to 1.09505
Heightened Def Con from 1.09505 to 1.09505
Heightened Def Con from 1.09505 to 1.09505
Heightened Def Con from 1.09505 to 1.09505
Heightened Def Con from 1.09505 to 1.09505
Heightened Def Con from 1.09505 to 1.09505
Heightened Def Con from 1.09505 to 1.09505
Heightened Def Con from 1.09505 to 1.09505
Heightened Def Con from 1.09505 to 1.09505
Heightened Def Con from 1.09505 to 1.09505
Heightened Def Con from 1.09505 to 1.09505
Heightened Def Con from 1.09505 to 1.09505
Heightened Def Con from 1.09505 to 1.09505
Heightened Def Con from 1.09505 to 1.09505
Heightened Def Con from 1.09505 to 1.09505
Heightened Def Con from 1.09505 to 1.09505
Heightened Def Con from 1.09505 to 1.09505
Heightened Def Con from 1.09505 to 1.09505
Heightened Def Con from 1.09505 to 1.09505
Heightened Def Con from 1.09505 to 1.09505
Heightened Def Con from 1.09505 to 1.09505
Heightened Def Con from 1.09505 to 1.09505
Heightened Def Con from 1.09505 to 1.09505
Heightened Def Con from 1.09505 ++to 1.09505
Heightened Def Con from 1.09505 to 1.09505
Heightened Def Con from 1.09505 to 1.09505
Heightened Def Con from 1.09505 to 1.09505
Heightened Def Con from 1.09505 to 1.09505
Heightened Def Con from 1.09505 to 1.09505
Heightened Def Con from 1.09505 to 1.09505
Heightened Def Con from 1.09505 to 1.09505
Heightened Def Con from 1.09505 to 1.09505
Heightened Def Con from 1.09505 to 1.09505
Heightened Def Con from 1.09505 to 1.09505
Heightened Def Con from 1.09505 to 1.09505
Heightened Def Con from 1.09505 to 1.09505
Heightened Def Con from 1.09505 to 1.09505
Heightened Def Con from 1.09505 to 1.09505
Heightened Def Con from 1.09505 to 1.09505
Heightened Def Con from 1.09505 to 1.09505
Heightened Def Con from 1.09505 to 1.09505
Heightened Def Con from 1.09505 to 1.09505
Heightened Def Con from 1.25888 +to 1.25888
Heightened Def Con from 1.25888 to 1.25888
Heightened Def Con from 1.25894 to 1.25894
Heightened Def Con from 1.25894 to 1.25894
Heightened Def Con from 1.25894 to 1.25894
Heightened Def Con from 1.25894 to 1.25894
Heightened Def Con from 1.25894 to 1.25894
Heightened Def Con from 1.25894 +to 1.25894
Heightened Def Con from 1.25902 to 1.25902
Heightened Def Con from 1.25902 to 1.25902
Heightened Def Con from 1.25902 to 1.25902
Heightened Def Con from 1.25902 to 1.25902
Heightened Def Con from 1.25902 to 1.25902
Heightened Def Con from 1.25902 to 1.25902
Heightened Def Con from 1.25902 to 1.25902
Heightened Def Con from 1.25902 to 1.25902
Heightened Def Con from 1.25902 to 1.25902
Heightened Def Con from 1.25902 to 1.25902
Heightened Def Con from 1.25902 to 1.25902
Heightened Def Con from 1.25902 to 1.25902
Heightened Def Con from 1.25902 to 1.25902
Heightened Def Con from 1.25902 to 1.25902
Heightened Def Con from 1.25902 to 1.25902
Heightened Def Con from 1.25902 to 1.25902
Heightened Def Con from 1.25902 to 1.25902
Heightened Def Con from 1.25902 to 1.25902
Heightened Def Con from 1.25902 to 1.25902
Heightened Def Con from 1.25902 to 1.25902
Heightened Def Con from 1.25902 to 1.25902
Heightened Def Con from 1.25902 to 1.25902
Heightened Def Con from 1.25902 to 1.25902
Heightened Def Con from 1.25902 to 1.25902
Heightened Def Con from 1.25902 to 1.25902
Heightened Def Con from 1.25902 to 1.25902
Heightened Def Con from 1.25902 to 1.25902
Heightened Def Con from 1.25902 to 1.25902
Heightened Def Con from 1.25902 to 1.25902
Heightened Def Con from 1.25902 to 1.25902
Heightened Def Con from 1.25902 to 1.25902
Heightened Def Con from 1.25902 to 1.25902
Heightened Def Con from 1.25902 to 1.25902
Heightened Def Con from 1.25902 to 1.25902
Heightened Def Con from 1.25902 to 1.25902
Heightened Def Con from 1.25902 to 1.25902
Heightened Def Con from 1.25902 to 1.25902
Heightened Def Con from 1.25902 to 1.25902
Heightened Def Con from 1.25902 to 1.25902
Heightened Def Con from 1.25902 to 1.25902
Heightened Def Con from 1.25902 to 1.25902
Heightened Def Con from 1.25902 to 1.25902
Heightened Def Con from 1.25902 to 1.25902
Heightened Def Con from 1.25902 to 1.25902
Heightened Def Con from 1.25902 to 1.25902
Heightened Def Con from 1.25902 to 1.25902
Heightened Def Con from 1.25902 to 1.25902
Heightened Def Con from 1.25902 to 1.25902
Heightened Def Con from 1.25902 to 1.25902
Heightened Def Con from 1.25902 to 1.25902
Heightened Def Con from 1.25902 to 1.25902
Heightened Def Con from 1.25902 to 1.25902
Heightened Def Con from 1.25902 to 1.25902
Heightened Def Con from 1.25902 to 1.25902
Heightened Def Con from 1.25902 to 1.25902
Heightened Def Con from 1.25902 to 1.25902
Heightened Def Con from 1.25902 to 1.25902
Heightened Def Con from 1.25902 to 1.25902
Heightened Def Con from 1.25902 to 1.25902
Heightened Def Con from 1.25902 +to 1.25902
Heightened Def Con from 1.40862 to 1.40862
Heightened Def Con from 1.40862 to 1.40862
Heightened Def Con from 1.40862 to 1.40862
Heightened Def Con from 1.40862 to 1.40862
Heightened Def Con from 1.40862 to 1.40862
Heightened Def Con from 1.40862 to 1.40862
Heightened Def Con from 1.40862 to 1.40862
Heightened Def Con from 1.40862 to 1.40862
Heightened Def Con from 1.40862 to 1.40862
Heightened Def Con from 1.40862 to 1.40862
Heightened Def Con from 1.40862 to 1.40862
Heightened Def Con from 1.40862 to 1.40862
Heightened Def Con from 1.40862 to 1.40862
Heightened Def Con from 1.40862 to 1.40862
Heightened Def Con from 1.40862 to 1.40862
Heightened Def Con from 1.40862 to 1.40862
Heightened Def Con from 1.40862 to 1.40862
Heightened Def Con from 1.40862 to 1.40862
Heightened Def Con from 1.40862 to 1.40862
Heightened Def Con from 1.40862 to 1.40862
Heightened Def Con from 1.40862 to 1.40862
Heightened Def Con from 1.40862 to 1.40862
Heightened Def Con from 1.40862 to 1.40862
Heightened Def Con from 1.40862 to 1.40862
Heightened Def Con from 1.40862 to 1.40862
Heightened Def Con from 1.40862 to 1.40862
Heightened Def Con from 1.40862 to 1.40862
Heightened Def Con from 1.40862 to 1.40862
Heightened Def Con from 1.40862 to 1.40862
Heightened Def Con from 1.40862 to 1.40862
Heightened Def Con from 1.40862 to 1.40862
Heightened Def Con from 1.40862 to 1.40862
Heightened Def Con from 1.40862 to 1.40862
Heightened Def Con from 1.40862 to 1.40862
Heightened Def Con from 1.45773 to 1.45773
Heightened Def Con from 1.45773 to 1.45773
Heightened Def Con from 1.45773 to 1.45773
Heightened Def Con from 1.45773 to 1.45773
Heightened Def Con from 1.45773 to 1.45773
Heightened Def Con from 1.45773 to 1.45773
Heightened Def Con from 1.45773 to 1.45773
Heightened Def Con from 1.45773 to 1.45773
Heightened Def Con from 1.45773 to 1.45773
Heightened Def Con from 1.45773 to 1.45773
Heightened Def Con from 1.45773 to 1.45773
Heightened Def Con from 1.45773 to 1.45773
Heightened Def Con from 1.45773 +to 1.45773
Heightened Def Con from 1.45773 to 1.45773
Heightened Def Con from 1.45773 to 1.45773
Heightened Def Con from 1.45773 to 1.45773
Heightened Def Con from 1.45773 to 1.45773
Heightened Def Con from 1.45773 to 1.45773
Heightened Def Con from 1.45773 to 1.45773
Heightened Def Con from 1.45773 to 1.45773
Heightened Def Con from 1.45773 to 1.45773
Heightened Def Con from 1.45773 to 1.45773
Heightened Def Con from 1.45773 to 1.45773
Heightened Def Con from 1.45773 to 1.45773
Heightened Def Con from 1.45773 to 1.45773
Heightened Def Con from 1.45773 to 1.45773
Heightened Def Con from 1.45773 +to 1.45773
Heightened Def Con from 1.45773 to 1.45773
Heightened Def Con from 1.45773 to 1.45773
Heightened Def Con from 1.45773 to 1.45773
Heightened Def Con from 1.45773 to 1.45773
Heightened Def Con from 1.45773 to 1.45773
Heightened Def Con from 1.45773 to 1.45773
Heightened Def Con from 1.45773 to 1.45773
Heightened Def Con from 1.45773 to 1.45773
Heightened Def Con from 1.45773 to 1.45773
Heightened Def Con from 1.45773 to 1.45773
Heightened Def Con from 1.45773 to 1.45773
Heightened Def Con from 1.45773 to 1.45773
Heightened Def Con from 1.45773 to 1.45773
Heightened Def Con from 1.45773 to 1.45773
Heightened Def Con from 1.45773 to 1.45773
Heightened Def Con from 1.45773 to 1.45773
Heightened Def Con from 1.45773 to 1.45773
Heightened Def Con from 1.45773 to 1.45773
Heightened Def Con from 1.45773 to 1.45773
Heightened Def Con from 1.45773 to 1.45773
Heightened Def Con from 1.45773 to 1.45773
Heightened Def Con from 1.45773 to 1.45773
Heightened Def Con from 1.45773 to 1.45773
Heightened Def Con from 1.45773 to 1.45773
Heightened Def Con from 1.45773 to 1.45773
Heightened Def Con from 1.45773 to 1.45773
Heightened Def Con from 1.45773 to 1.45773
Heightened Def Con from 1.45773 to 1.45773
Heightened Def Con from 1.45773 to 1.45773
Heightened Def Con from 1.45773 to 1.45773
Heightened Def Con from 1.45773 to 1.45773
Heightened Def Con from 1.45773 to 1.45773
Heightened Def Con from 1.45773 to 1.45773
Heightened Def Con from 1.45773 to 1.45773
Heightened Def Con from 1.45773 to 1.45773
Heightened Def Con from 1.45773 to 1.45773
Heightened Def Con from 1.45773 +to 1.45773
Heightened Def Con from 1.6687 to 1.6687
Heightened Def Con from 1.6687 to 1.6687
Heightened Def Con from 1.6687 to 1.6687
Heightened Def Con from 1.6687 to 1.6687
Heightened Def Con from 1.6687 to 1.6687
Heightened Def Con from 1.6687 to 1.6687
Heightened Def Con from 1.6687 to 1.6687
Heightened Def Con from 1.6687 to 1.6687
Heightened Def Con from 1.6687 to 1.6687
Heightened Def Con from 1.6687 to 1.6687
Heightened Def Con from 1.6687 to 1.6687
Heightened Def Con from 1.6687 to 1.6687
Heightened Def Con from 1.6687 to 1.6687
Heightened Def Con from 1.6687 to 1.6687
Heightened Def Con from 1.66909 to 1.66909
Heightened Def Con from 1.66909 to 1.66909
Heightened Def Con from 1.66909 to 1.66909
Heightened Def Con from 1.66909 to 1.66909
Heightened Def Con from 1.66909 to 1.66909
Heightened Def Con from 1.66909 to 1.66909
Heightened Def Con from 1.66909 to 1.66909
Heightened Def Con from 1.66909 to 1.66909
Heightened Def Con from 1.66909 to 1.66909
Heightened Def Con from 1.66909 to 1.66909
Heightened Def Con from 1.66909 to 1.66909
Heightened Def Con from 1.66909 to 1.66909
Heightened Def Con from 1.66909 to 1.66909
Heightened Def Con from 1.66909 to 1.66909
Heightened Def Con from 1.66909 to 1.66909
Heightened Def Con from 1.66909 to 1.66909
Heightened Def Con from 1.66909 to 1.66909
Heightened Def Con from 1.66909 to 1.66909
Heightened Def Con from 1.66909 to 1.66909
Heightened Def Con from 1.66909 to 1.66909
Heightened Def Con from 1.66909 to 1.66909
Heightened Def Con from 1.66909 to 1.66909
Heightened Def Con from 1.66909 to 1.66909
Heightened Def Con from 1.66909 to 1.66909
Heightened Def Con from 1.66909 to 1.66909
Heightened Def Con from 1.66909 to 1.66909
Heightened Def Con from 1.66909 to 1.66909
Heightened Def Con from 1.66909 to 1.66909
Heightened Def Con from 1.66909 to 1.66909
Heightened Def Con from 1.66909 to 1.66909
Heightened Def Con from 1.66909 to 1.66909
Heightened Def Con from 1.66909 to 1.66909
Heightened Def Con from 1.66909 to 1.66909
Heightened Def Con from 1.66909 to 1.66909
Heightened Def Con from 1.66909 to 1.66909
Heightened Def Con from 1.66909 to 1.66909
Heightened Def Con from 1.66909 to 1.66909
Heightened Def Con from 1.66909 to 1.66909
Heightened Def Con from 1.66909 +to 1.66909
Heightened Def Con from 1.66909 to 1.66909
Heightened Def Con from 1.66909 to 1.66909
Heightened Def Con from 1.66909 to 1.66909
Heightened Def Con from 1.66909 to 1.66909
Heightened Def Con from 1.66909 to 1.66909
Heightened Def Con from 1.66909 to 1.66909
Heightened Def Con from 1.83948 to 1.83948
Heightened Def Con from 1.83948 +to 1.83948
Heightened Def Con from 1.83948 to 1.83948
Heightened Def Con from 1.83948 to 1.83948
Heightened Def Con from 1.83948 to 1.83948
Heightened Def Con from 1.83948 to 1.83948
Heightened Def Con from 1.83948 to 1.83948
Heightened Def Con from 1.83948 to 1.83948
Heightened Def Con from 1.83948 to 1.83948
Heightened Def Con from 1.83948 to 1.83948
Heightened Def Con from 1.83948 to 1.83948
Heightened Def Con from 1.83948 to 1.83948
Heightened Def Con from 1.83948 to 1.83948
Heightened Def Con from 1.83948 to 1.83948
Heightened Def Con from 1.83948 to 1.83948
Heightened Def Con from 1.83948 to 1.83948
Heightened Def Con from 1.83948 to 1.83948
Heightened Def Con from 1.83948 to 1.83948
Heightened Def Con from 1.83948 to 1.83948
Heightened Def Con from 1.83948 to 1.83948
Heightened Def Con from 1.83948 to 1.83948
Heightened Def Con from 1.83948 to 1.83948
Heightened Def Con from 1.83948 to 1.83948
Heightened Def Con from 1.83948 to 1.83948
Heightened Def Con from 1.83948 to 1.83948
Heightened Def Con from 1.83948 to 1.83948
Heightened Def Con from 1.83948 to 1.83948
Heightened Def Con from 1.83948 to 1.83948
Heightened Def Con from 1.83948 to 1.83948
Heightened Def Con from 1.83948 to 1.83948
Heightened Def Con from 1.83948 to 1.83948
Heightened Def Con from 1.83948 to 1.83948
Heightened Def Con from 1.83948 to 1.83948
Heightened Def Con from 1.83948 +to 1.83948
Heightened Def Con from 1.83948 to 1.83948
Heightened Def Con from 1.83948 to 1.83948
Heightened Def Con from 1.83948 to 1.83948
Heightened Def Con from 1.83948 to 1.83948
Heightened Def Con from 1.83948 to 1.83948
Heightened Def Con from 1.83948 to 1.83948
Heightened Def Con from 1.83948 to 1.83948
Heightened Def Con from 1.83948 to 1.83948
Heightened Def Con from 1.83948 to 1.83948
Heightened Def Con from 1.83948 to 1.83948
Heightened Def Con from 1.83948 to 1.83948
Heightened Def Con from 1.83948 to 1.83948
Heightened Def Con from 1.83948 to 1.83948
Heightened Def Con from 1.83948 to 1.83948
Heightened Def Con from 1.83948 to 1.83948
Heightened Def Con from 1.83948 to 1.83948
Heightened Def Con from 1.83948 to 1.83948
Heightened Def Con from 1.83948 to 1.83948
Heightened Def Con from 1.83948 to 1.83948
Heightened Def Con from 1.83948 to 1.83948
Heightened Def Con from 1.83948 +to 1.83948
Heightened Def Con from 1.83948 to 1.83948
Heightened Def Con from 1.83948 to 1.83948
Heightened Def Con from 1.83948 to 1.83948
Heightened Def Con from 1.83948 to 1.83948
Heightened Def Con from 1.83948 to 1.83948
Heightened Def Con from 1.83948 to 1.83948
Heightened Def Con from 1.83948 to 1.83948
Heightened Def Con from 1.83948 to 1.83948
Heightened Def Con from 1.83948 to 1.83948
Heightened Def Con from 1.83948 to 1.83948
Heightened Def Con from 1.83948 to 1.83948
Heightened Def Con from 1.83948 to 1.83948
Heightened Def Con from 1.83948 to 1.83948
Heightened Def Con from 1.83948 to 1.83948
Heightened Def Con from 1.83948 to 1.83948
Heightened Def Con from 1.83948 to 1.83948
Heightened Def Con from 1.83948 to 1.83948
Heightened Def Con from 1.83948 to 1.83948
Heightened Def Con from 1.83948 to 1.83948
Heightened Def Con from 1.83948 to 1.83948
Heightened Def Con from 1.83948 to 1.83948
Heightened Def Con from 1.83948 to 1.83948
Heightened Def Con from 1.83948 to 1.83948
Heightened Def Con from 1.83948 to 1.83948
Heightened Def Con from 1.83948 to 1.83948
Heightened Def Con from 1.83948 to 1.83948
Heightened Def Con from 1.83948 to 1.83948
Heightened Def Con from 1.83948 to 1.83948
Heightened Def Con from 1.83948 to 1.83948
Heightened Def Con from 1.83948 to 1.83948
Heightened Def Con from 1.83948 to 1.83948
Heightened Def Con from 1.83948 to 1.83948
Heightened Def Con from 1.83948 to 1.83948
Heightened Def Con from 1.83948 to 1.83948
Heightened Def Con from 1.83948 to 1.83948
Heightened Def Con from 1.83948 to 1.83948
Heightened Def Con from 1.83948 to 1.83948
Heightened Def Con from 1.83948 to 1.83948
Heightened Def Con from 1.83948 to 1.83948
Heightened Def Con from 1.83948 to 1.83948
Heightened Def Con from 1.83948 to 1.83948
Heightened Def Con from 1.83948 to 1.83948
Heightened Def Con from 1.83948 to 1.83948
Heightened Def Con from 1.83948 to 1.83948
Heightened Def Con from 1.83948 to 1.83948
Heightened Def Con from 1.83948 to 1.83948
Heightened Def Con from 1.83948 to 1.83948
Heightened Def Con from 1.83948 to 1.83948
Heightened Def Con from 1.83948 to 1.83948
Heightened Def Con from 1.83948 to 1.83948
Heightened Def Con from 1.83948 to 1.83948
Heightened Def Con from 1.83948 to 1.83948
Heightened Def Con from 1.83948 ++to 1.83948
Heightened Def Con from 1.83948 to 1.83948
Heightened Def Con from 1.83948 to 1.83948
Heightened Def Con from 1.83948 to 1.83948
Heightened Def Con from 1.83948 to 1.83948
Heightened Def Con from 1.83948 to 1.83948
Heightened Def Con from 1.83948 to 1.83948
Heightened Def Con from 1.83948 to 1.83948
Heightened Def Con from 1.83948 to 1.83948
Heightened Def Con from 1.83948 to 1.83948
Heightened Def Con from 1.83948 to 1.83948
Heightened Def Con from 1.83948 to 1.83948
Heightened Def Con from 1.83948 to 1.83948
Heightened Def Con from 1.83948 to 1.83948
Heightened Def Con from 1.83948 to 1.83948
Heightened Def Con from 1.83948 to 1.83948
Heightened Def Con from 1.83948 to 1.83948
Heightened Def Con from 1.83948 to 1.83948
Heightened Def Con from 1.83948 +to 1.83948
Heightened Def Con from 1.83948 to 1.83948
Heightened Def Con from 1.83948 to 1.83948
Heightened Def Con from 1.83948 to 1.83948
Heightened Def Con from 1.83948 to 1.83948
Heightened Def Con from 1.83948 to 1.83948
Heightened Def Con from 1.83948 to 1.83948
Heightened Def Con from 1.83948 to 1.83948
Heightened Def Con from 1.83948 to 1.83948
Heightened Def Con from 1.83948 to 1.83948
Heightened Def Con from 1.83948 to 1.83948
Heightened Def Con from 1.83948 to 1.83948
Heightened Def Con from 1.83948 to 1.83948
Heightened Def Con from 1.83948 to 1.83948
Heightened Def Con from 1.83948 to 1.83948
Heightened Def Con from 1.83948 +to 1.83948
Heightened Def Con from 1.83948 to 1.83948
Heightened Def Con from 1.83948 to 1.83948
Heightened Def Con from 1.85079 to 1.85079
Heightened Def Con from 1.85079 to 1.85079
Heightened Def Con from 1.85079 to 1.85079
Heightened Def Con from 1.85079 to 1.85079
Heightened Def Con from 1.85079 to 1.85079
Heightened Def Con from 1.85079 to 1.85079
Heightened Def Con from 1.85079 to 1.85079
Heightened Def Con from 1.85079 to 1.85079
Heightened Def Con from 1.85079 to 1.85079
Heightened Def Con from 1.85079 to 1.85079
Heightened Def Con from 1.85079 to 1.85079
Heightened Def Con from 1.85079 to 1.85079
Heightened Def Con from 1.85079 to 1.85079
Heightened Def Con from 1.85079 +to 1.85079
Heightened Def Con from 1.85079 to 1.85079
Heightened Def Con from 1.85079 to 1.85079
Heightened Def Con from 1.85079 to 1.85079
Heightened Def Con from 1.85079 to 1.85079
Heightened Def Con from 1.85079 to 1.85079
Heightened Def Con from 1.85079 to 1.85079
Heightened Def Con from 1.85079 to 1.85079
Heightened Def Con from 1.85079 +to 1.85079
Heightened Def Con from 1.85079 to 1.85079
Heightened Def Con from 1.85079 to 1.85079
Heightened Def Con from 1.85079 to 1.85079
Heightened Def Con from 1.85079 +to 1.85079
Heightened Def Con from 1.85079 to 1.85079
Heightened Def Con from 1.85079 to 1.85079
Heightened Def Con from 1.85079 to 1.85079
Heightened Def Con from 1.85079 to 1.85079
Heightened Def Con from 1.85079 to 1.85079
Heightened Def Con from 1.85079 to 1.85079
Heightened Def Con from 1.85079 to 1.85079
Heightened Def Con from 1.85079 to 1.85079
Heightened Def Con from 1.85079 to 1.85079
Heightened Def Con from 1.85079 to 1.85079
Heightened Def Con from 1.85079 to 1.85079
Heightened Def Con from 1.85079 to 1.85079
Heightened Def Con from 1.85079 to 1.85079
Heightened Def Con from 1.85079 to 1.85079
Heightened Def Con from 1.85079 to 1.85079
Heightened Def Con from 1.85079 to 1.85079
Heightened Def Con from 1.85079 to 1.85079
Heightened Def Con from 1.85079 to 1.85079
Heightened Def Con from 1.85079 to 1.85079
Heightened Def Con from 1.85079 to 1.85079
Heightened Def Con from 1.85079 to 1.85079
Heightened Def Con from 1.85079 to 1.85079
Heightened Def Con from 1.85079 to 1.85079
Heightened Def Con from 1.85079 +to 1.85079
Heightened Def Con from 1.85079 to 1.85079
Heightened Def Con from 1.85079 to 1.85079
Heightened Def Con from 2.0661 to 2.0661
Heightened Def Con from 2.0661 to 2.0661
Heightened Def Con from 2.0661 to 2.0661
Heightened Def Con from 2.0661 to 2.0661
Heightened Def Con from 2.0661 to 2.0661
Heightened Def Con from 2.0661 to 2.0661
Heightened Def Con from 2.0661 to 2.0661
Heightened Def Con from 2.0661 to 2.0661
Heightened Def Con from 2.0661 to 2.0661
Heightened Def Con from 2.0661 to 2.0661
Heightened Def Con from 2.0661 +to 2.0661
Heightened Def Con from 2.0661 to 2.0661
Heightened Def Con from 2.0661 to 2.0661
Heightened Def Con from 2.0661 to 2.0661
Heightened Def Con from 2.0661 to 2.0661
Heightened Def Con from 2.0661 to 2.0661
Heightened Def Con from 2.0661 to 2.0661
Heightened Def Con from 2.0661 to 2.0661
Heightened Def Con from 2.0661 to 2.0661
Heightened Def Con from 2.0661 to 2.0661
Heightened Def Con from 2.0661 to 2.0661
Heightened Def Con from 2.0661 to 2.0661
Heightened Def Con from 2.0661 to 2.0661
Heightened Def Con from 2.0661 to 2.0661
Heightened Def Con from 2.0661 to 2.0661
Heightened Def Con from 2.0661 to 2.0661
Heightened Def Con from 2.0661 to 2.0661
Heightened Def Con from 2.0661 to 2.0661
Heightened Def Con from 2.0661 to 2.0661
Heightened Def Con from 2.0661 to 2.0661
Heightened Def Con from 2.0661 to 2.0661
Heightened Def Con from 2.0661 to 2.0661
Heightened Def Con from 2.0661 to 2.0661
Heightened Def Con from 2.0661 +to 2.0661
Heightened Def Con from 2.0661 to 2.0661
Heightened Def Con from 2.0661 to 2.0661
Heightened Def Con from 2.0661 to 2.0661
Heightened Def Con from 2.0661 +to 2.0661
Heightened Def Con from 2.0661 to 2.0661
Heightened Def Con from 2.0661 to 2.0661
Heightened Def Con from 2.0661 to 2.0661
Heightened Def Con from 2.0661 to 2.0661
Heightened Def Con from 2.0661 to 2.0661
Heightened Def Con from 2.0661 to 2.0661
Heightened Def Con from 2.0661 to 2.0661
Heightened Def Con from 2.0661 to 2.0661
Heightened Def Con from 2.0661 to 2.0661
Heightened Def Con from 2.0661 to 2.0661
Heightened Def Con from 2.0661 to 2.0661
Heightened Def Con from 2.0661 to 2.0661
Heightened Def Con from 2.0661 to 2.0661
Heightened Def Con from 2.0661 to 2.0661
Heightened Def Con from 2.0661 to 2.0661
Heightened Def Con from 2.0661 to 2.0661
Heightened Def Con from 2.0661 +to 2.0661
Heightened Def Con from 2.0661 to 2.0661
Heightened Def Con from 2.0661 to 2.0661
Heightened Def Con from 2.06612 to 2.06612
Heightened Def Con from 2.06612 to 2.06612
Heightened Def Con from 2.06612 to 2.06612
Heightened Def Con from 2.06612 to 2.06612
Heightened Def Con from 2.06612 to 2.06612
Heightened Def Con from 2.06612 to 2.06612
Heightened Def Con from 2.06612 to 2.06612
Heightened Def Con from 2.06612 +to 2.06612
Heightened Def Con from 2.06612 to 2.06612
Heightened Def Con from 2.06612 to 2.06612
Heightened Def Con from 2.06612 to 2.06612
Heightened Def Con from 2.06612 to 2.06612
Heightened Def Con from 2.06612 to 2.06612
Heightened Def Con from 2.06612 to 2.06612
Heightened Def Con from 2.06612 to 2.06612
Heightened Def Con from 2.06612 to 2.06612
Heightened Def Con from 2.06612 to 2.06612
Heightened Def Con from 2.06612 to 2.06612
Heightened Def Con from 2.06612 to 2.06612
Heightened Def Con from 2.06612 to 2.06612
Heightened Def Con from 2.06612 to 2.06612
Heightened Def Con from 2.06612 to 2.06612
Heightened Def Con from 2.06612 to 2.06612
Heightened Def Con from 2.06612 to 2.06612
Heightened Def Con from 2.06612 to 2.06612
Heightened Def Con from 2.06612 to 2.06612
Heightened Def Con from 2.06612 to 2.06612
Heightened Def Con from 2.06612 to 2.06612
Heightened Def Con from 2.06612 to 2.06612
Heightened Def Con from 2.06612 to 2.06612
Heightened Def Con from 2.06612 to 2.06612
Heightened Def Con from 2.06612 to 2.06612
Heightened Def Con from 2.06612 to 2.06612
Heightened Def Con from 2.06612 to 2.06612
Heightened Def Con from 2.06612 to 2.06612
Heightened Def Con from 2.06612 to 2.06612
Heightened Def Con from 2.06612 to 2.06612
Heightened Def Con from 2.06612 to 2.06612
Heightened Def Con from 2.06612 to 2.06612
Heightened Def Con from 2.06612 to 2.06612
Heightened Def Con from 2.06612 to 2.06612
Heightened Def Con from 2.06612 to 2.06612
Heightened Def Con from 2.06612 to 2.06612
Heightened Def Con from 2.06612 to 2.06612
Heightened Def Con from 2.06612 to 2.06612
Heightened Def Con from 2.06612 to 2.06612
Heightened Def Con from 2.06612 to 2.06612
Heightened Def Con from 2.06612 to 2.06612
Heightened Def Con from 2.06612 to 2.06612
Heightened Def Con from 2.06612 to 2.06612
Heightened Def Con from 2.06612 to 2.06612
Heightened Def Con from 2.06612 to 2.06612
Heightened Def Con from 2.06612 to 2.06612
Heightened Def Con from 2.06612 to 2.06612
Heightened Def Con from 2.06612 to 2.06612
Heightened Def Con from 2.06612 to 2.06612
Heightened Def Con from 2.06612 to 2.06612
Heightened Def Con from 2.06612 to 2.06612
Heightened Def Con from 2.06612 to 2.06612
Heightened Def Con from 2.06612 to 2.06612
Heightened Def Con from 2.06612 to 2.06612
Heightened Def Con from 2.06612 to 2.06612
Heightened Def Con from 2.06612 to 2.06612
Heightened Def Con from 2.06612 to 2.06612
Heightened Def Con from 2.06612 to 2.06612
Heightened Def Con from 2.06612 to 2.06612
Heightened Def Con from 2.06612 to 2.06612
Heightened Def Con from 2.2215 to 2.2215
Heightened Def Con from 2.2215 to 2.2215
Heightened Def Con from 2.2215 +to 2.2215
Heightened Def Con from 2.2215 to 2.2215
Heightened Def Con from 2.2215 to 2.2215
Heightened Def Con from 2.2215 to 2.2215
Heightened Def Con from 2.2215 to 2.2215
Heightened Def Con from 2.2215 to 2.2215
Heightened Def Con from 2.2215 to 2.2215
Heightened Def Con from 2.2215 to 2.2215
Heightened Def Con from 2.2215 to 2.2215
Heightened Def Con from 2.2215 to 2.2215
Heightened Def Con from 2.2215 to 2.2215
Heightened Def Con from 2.2215 to 2.2215
Heightened Def Con from 2.2215 to 2.2215
Heightened Def Con from 2.2215 to 2.2215
Heightened Def Con from 2.2215 to 2.2215
Heightened Def Con from 2.2215 +to 2.2215
Heightened Def Con from 2.2215 to 2.2215
Heightened Def Con from 2.2215 to 2.2215
Heightened Def Con from 2.2215 to 2.2215
Heightened Def Con from 2.2215 to 2.2215
Heightened Def Con from 2.2215 to 2.2215
Heightened Def Con from 2.2215 +to 2.2215
Heightened Def Con from 2.2215 to 2.2215
Heightened Def Con from 2.2215 to 2.2215
Heightened Def Con from 2.2215 to 2.2215
Heightened Def Con from 2.2215 to 2.2215
Heightened Def Con from 2.2215 to 2.2215
Heightened Def Con from 2.2215 to 2.2215
Heightened Def Con from 2.2215 to 2.2215
Heightened Def Con from 2.2215 to 2.2215
Heightened Def Con from 2.2215 to 2.2215
Heightened Def Con from 2.2215 to 2.2215
Heightened Def Con from 2.2215 to 2.2215
Heightened Def Con from 2.2215 to 2.2215
Heightened Def Con from 2.2215 to 2.2215
Heightened Def Con from 2.2215 to 2.2215
Heightened Def Con from 2.2215 to 2.2215
Heightened Def Con from 2.2215 to 2.2215
Heightened Def Con from 2.2215 to 2.2215
Heightened Def Con from 2.2215 to 2.2215
Heightened Def Con from 2.2215 to 2.2215
Heightened Def Con from 2.2215 to 2.2215
Heightened Def Con from 2.2215 to 2.2215
Heightened Def Con from 2.2215 to 2.2215
Heightened Def Con from 2.2215 +to 2.2215
Heightened Def Con from 2.2215 to 2.2215
Heightened Def Con from 2.2215 to 2.2215
Heightened Def Con from 2.24898 to 2.24898
Heightened Def Con from 2.24898 to 2.24898
Heightened Def Con from 2.24898 to 2.24898
Heightened Def Con from 2.24898 to 2.24898
Heightened Def Con from 2.24898 to 2.24898
Heightened Def Con from 2.24898 to 2.24898
Heightened Def Con from 2.24898 to 2.24898
Heightened Def Con from 2.24898 to 2.24898
Heightened Def Con from 2.24898 to 2.24898
Heightened Def Con from 2.24898 to 2.24898
Heightened Def Con from 2.24898 to 2.24898
Heightened Def Con from 2.24898 to 2.24898
Heightened Def Con from 2.24898 to 2.24898
Heightened Def Con from 2.24898 to 2.24898
Heightened Def Con from 2.24898 to 2.24898
Heightened Def Con from 2.24898 to 2.24898
Heightened Def Con from 2.24898 to 2.24898
Heightened Def Con from 2.24898 to 2.24898
Heightened Def Con from 2.24898 to 2.24898
Heightened Def Con from 2.24898 to 2.24898
Heightened Def Con from 2.24898 to 2.24898
Heightened Def Con from 2.24898 to 2.24898
Heightened Def Con from 2.24898 to 2.24898
Heightened Def Con from 2.24898 to 2.24898
Heightened Def Con from 2.24898 +to 2.24898
Heightened Def Con from 2.24898 to 2.24898
Heightened Def Con from 2.24898 to 2.24898
Heightened Def Con from 2.24898 to 2.24898
Heightened Def Con from 2.24898 to 2.24898
Heightened Def Con from 2.24898 to 2.24898
Heightened Def Con from 2.24898 to 2.24898
Heightened Def Con from 2.24898 to 2.24898
Heightened Def Con from 2.24898 to 2.24898
Heightened Def Con from 2.24898 to 2.24898
Heightened Def Con from 2.24898 to 2.24898
Heightened Def Con from 2.24898 to 2.24898
Heightened Def Con from 2.24898 to 2.24898
Heightened Def Con from 2.24898 to 2.24898
Heightened Def Con from 2.24898 to 2.24898
Heightened Def Con from 2.24898 to 2.24898
Heightened Def Con from 2.24898 to 2.24898
Heightened Def Con from 2.24898 to 2.24898
Heightened Def Con from 2.24898 to 2.24898
Heightened Def Con from 2.24898 to 2.24898
Heightened Def Con from 2.24898 to 2.24898
Heightened Def Con from 2.24898 to 2.24898
Heightened Def Con from 2.24898 to 2.24898
Heightened Def Con from 2.24898 to 2.24898
Heightened Def Con from 2.24898 to 2.24898
Heightened Def Con from 2.24898 to 2.24898
Heightened Def Con from 2.24898 to 2.24898
Heightened Def Con from 2.24898 to 2.24898
Heightened Def Con from 2.24898 to 2.24898
Heightened Def Con from 2.46944 to 2.46944
Heightened Def Con from 2.46944 to 2.46944
Heightened Def Con from 2.46944 to 2.46944
Heightened Def Con from 2.46944 to 2.46944
Heightened Def Con from 2.46944 to 2.46944
Heightened Def Con from 2.46944 to 2.46944
Heightened Def Con from 2.46944 to 2.46944
Heightened Def Con from 2.46944 to 2.46944
Heightened Def Con from 2.46944 +to 2.46944
Heightened Def Con from 2.46944 to 2.46944
Heightened Def Con from 2.63445 to 2.63445
Heightened Def Con from 2.63445 to 2.63445
Heightened Def Con from 2.63445 to 2.63445
Heightened Def Con from 2.63445 to 2.63445
Heightened Def Con from 2.63445 to 2.63445
Heightened Def Con from 2.63445 to 2.63445
Heightened Def Con from 2.63445 to 2.63445
Heightened Def Con from 2.63445 to 2.63445
Heightened Def Con from 2.63445 to 2.63445
Heightened Def Con from 2.63445 to 2.63445
Heightened Def Con from 2.63445 to 2.63445
Heightened Def Con from 2.63445 to 2.63445
Heightened Def Con from 2.63445 to 2.63445
Heightened Def Con from 2.63445 to 2.63445
Heightened Def Con from 2.63445 to 2.63445
Heightened Def Con from 2.63445 to 2.63445
Heightened Def Con from 2.63445 to 2.63445
Heightened Def Con from 2.63445 to 2.63445
Heightened Def Con from 2.63445 to 2.63445
Heightened Def Con from 2.63445 to 2.63445
Heightened Def Con from 2.63445 to 2.63445
Heightened Def Con from 2.63445 to 2.63445
Heightened Def Con from 2.63445 to 2.63445
Heightened Def Con from 2.63445 to 2.63445
Heightened Def Con from 2.63445 to 2.63445
Heightened Def Con from 2.63445 to 2.63445
Heightened Def Con from 2.63445 to 2.63445
Heightened Def Con from 2.63445 to 2.63445
Heightened Def Con from 2.63445 to 2.63445
Heightened Def Con from 2.63445 to 2.63445
Heightened Def Con from 2.63445 to 2.63445
Heightened Def Con from 2.63445 to 2.63445
Heightened Def Con from 2.63445 to 2.63445
Heightened Def Con from 2.63445 to 2.63445
Heightened Def Con from 2.63445 to 2.63445
Heightened Def Con from 2.63445 to 2.63445
Heightened Def Con from 2.63445 to 2.63445
Heightened Def Con from 2.63445 +to 2.63445
Heightened Def Con from 2.63445 to 2.63445
Heightened Def Con from 2.63445 to 2.63445
Heightened Def Con from 2.63445 +to 2.63445
Heightened Def Con from 2.63445 to 2.63445
Heightened Def Con from 2.63445 to 2.63445
Heightened Def Con from 2.63445 to 2.63445
Heightened Def Con from 2.63445 to 2.63445
Heightened Def Con from 2.64972 to 2.64972
Heightened Def Con from 2.64972 to 2.64972
Heightened Def Con from 2.64972 to 2.64972
Heightened Def Con from 2.64972 to 2.64972
Heightened Def Con from 2.64972 to 2.64972
Heightened Def Con from 2.64972 to 2.64972
Heightened Def Con from 2.64972 to 2.64972
Heightened Def Con from 2.64972 to 2.64972
Heightened Def Con from 2.64972 to 2.64972
Heightened Def Con from 2.64972 to 2.64972
Heightened Def Con from 2.64972 to 2.64972
Heightened Def Con from 2.64972 to 2.64972
Heightened Def Con from 2.64972 to 2.64972
Heightened Def Con from 2.64972 to 2.64972
Heightened Def Con from 2.64972 to 2.64972
Heightened Def Con from 2.64972 to 2.64972
Heightened Def Con from 2.64972 to 2.64972
Heightened Def Con from 2.64972 to 2.64972
Heightened Def Con from 2.64972 to 2.64972
Heightened Def Con from 2.64972 to 2.64972
Heightened Def Con from 2.64972 to 2.64972
Heightened Def Con from 2.64972 to 2.64972
Heightened Def Con from 2.64972 to 2.64972
Heightened Def Con from 2.64972 to 2.64972
Heightened Def Con from 2.64972 to 2.64972
Heightened Def Con from 2.64972 to 2.64972
Heightened Def Con from 2.64972 to 2.64972
Heightened Def Con from 2.64972 to 2.64972
Heightened Def Con from 2.64972 to 2.64972
Heightened Def Con from 2.64972 to 2.64972
Heightened Def Con from 2.64972 to 2.64972
Heightened Def Con from 2.64972 to 2.64972
Heightened Def Con from 2.64972 to 2.64972
Heightened Def Con from 2.64972 to 2.64972
Heightened Def Con from 2.64972 to 2.64972
Heightened Def Con from 2.64972 to 2.64972
Heightened Def Con from 2.64972 to 2.64972
Heightened Def Con from 2.64972 to 2.64972
Heightened Def Con from 2.64972 to 2.64972
Heightened Def Con from 2.64972 to 2.64972
Heightened Def Con from 2.64972 +to 2.64972
Heightened Def Con from 2.87004 to 2.87004
Heightened Def Con from 2.87004 to 2.87004
Heightened Def Con from 2.87004 to 2.87004
Heightened Def Con from 2.87004 to 2.87004
Heightened Def Con from 2.87004 to 2.87004
Heightened Def Con from 2.87004 to 2.87004
Heightened Def Con from 2.87004 to 2.87004
Heightened Def Con from 2.87004 to 2.87004
Heightened Def Con from 2.87004 to 2.87004
Heightened Def Con from 2.87004 to 2.87004
Heightened Def Con from 2.87004 to 2.87004
Heightened Def Con from 2.87004 to 2.87004
Heightened Def Con from 2.87004 to 2.87004
Heightened Def Con from 2.87004 to 2.87004
Heightened Def Con from 2.87004 to 2.87004
Heightened Def Con from 2.87004 to 2.87004
Heightened Def Con from 2.87004 to 2.87004
Heightened Def Con from 3.02955 to 3.02955
Heightened Def Con from 3.02955 +to 3.02955
Heightened Def Con from 3.02955 to 3.02955
Heightened Def Con from 3.02955 to 3.02955
Heightened Def Con from 3.02955 to 3.02955
Heightened Def Con from 3.02955 to 3.02955
Heightened Def Con from 3.02955 to 3.02955
Heightened Def Con from 3.02955 to 3.02955
Heightened Def Con from 3.02955 to 3.02955
Heightened Def Con from 3.02955 to 3.02955
Heightened Def Con from 3.02955 to 3.02955
Heightened Def Con from 3.02955 to 3.02955
Heightened Def Con from 3.02955 to 3.02955
Heightened Def Con from 3.02955 to 3.02955
Heightened Def Con from 3.02955 to 3.02955
Heightened Def Con from 3.06313 to 3.06313
Heightened Def Con from 3.06313 to 3.06313
Heightened Def Con from 3.06313 to 3.06313
Heightened Def Con from 3.06313 to 3.06313
Heightened Def Con from 3.06313 to 3.06313
Heightened Def Con from 3.06313 to 3.06313
Heightened Def Con from 3.06313 to 3.06313
Heightened Def Con from 3.06313 to 3.06313
Heightened Def Con from 3.06313 to 3.06313
Heightened Def Con from 3.06313 to 3.06313
Heightened Def Con from 3.06313 to 3.06313
Heightened Def Con from 3.06313 to 3.06313
Heightened Def Con from 3.06313 to 3.06313
Heightened Def Con from 3.06313 to 3.06313
Heightened Def Con from 3.06313 to 3.06313
Heightened Def Con from 3.06313 to 3.06313
Heightened Def Con from 3.06313 to 3.06313
Heightened Def Con from 3.06313 to 3.06313
Heightened Def Con from 3.06313 to 3.06313
Heightened Def Con from 3.06313 to 3.06313
Heightened Def Con from 3.06313 +to 3.06313
Heightened Def Con from 3.06313 to 3.06313
Heightened Def Con from 3.06313 to 3.06313
Heightened Def Con from 3.06313 to 3.06313
Heightened Def Con from 3.06313 to 3.06313
Heightened Def Con from 3.06313 to 3.06313
Heightened Def Con from 3.06313 to 3.06313
Heightened Def Con from 3.06313 to 3.06313
Heightened Def Con from 3.06313 to 3.06313
Heightened Def Con from 3.06313 to 3.06313
Heightened Def Con from 3.06313 to 3.06313
Heightened Def Con from 3.06313 to 3.06313
Heightened Def Con from 3.06313 to 3.06313
Heightened Def Con from 3.06313 to 3.06313
Heightened Def Con from 3.06313 to 3.06313
Heightened Def Con from 3.06313 to 3.06313
Heightened Def Con from 3.06313 to 3.06313
Heightened Def Con from 3.06313 to 3.06313
Heightened Def Con from 3.06313 to 3.06313
Heightened Def Con from 3.06313 to 3.06313
Heightened Def Con from 3.06313 to 3.06313
Heightened Def Con from 3.26537 to 3.26537
Heightened Def Con from 3.26537 to 3.26537
Heightened Def Con from 3.26537 to 3.26537
Heightened Def Con from 3.26537 to 3.26537
Heightened Def Con from 3.26537 to 3.26537
Heightened Def Con from 3.26537 to 3.26537
Heightened Def Con from 3.26537 to 3.26537
Heightened Def Con from 3.26537 to 3.26537
Heightened Def Con from 3.26537 to 3.26537
Heightened Def Con from 3.26537 to 3.26537
Heightened Def Con from 3.26537 to 3.26537
Heightened Def Con from 3.26537 to 3.26537
Heightened Def Con from 3.26537 to 3.26537
Heightened Def Con from 3.26537 to 3.26537
Heightened Def Con from 3.26537 to 3.26537
Heightened Def Con from 3.26537 to 3.26537
Heightened Def Con from 3.26537 to 3.26537
Heightened Def Con from 3.26537 to 3.26537
Heightened Def Con from 3.26537 to 3.26537
Heightened Def Con from 3.26537 to 3.26537
Heightened Def Con from 3.26537 to 3.26537
Heightened Def Con from 3.26537 to 3.26537
Heightened Def Con from 3.26537 to 3.26537
Heightened Def Con from 3.26537 to 3.26537
Heightened Def Con from 3.26537 to 3.26537
Heightened Def Con from 3.26537 to 3.26537
Heightened Def Con from 3.26537 to 3.26537
Heightened Def Con from 3.26537 to 3.26537
Heightened Def Con from 3.26537 to 3.26537
Heightened Def Con from 3.26537 to 3.26537
Heightened Def Con from 3.42497 to 3.42497
Heightened Def Con from 3.42497 to 3.42497
Heightened Def Con from 3.42497 +to 3.42497
Heightened Def Con from 3.42497 to 3.42497
Heightened Def Con from 3.42497 to 3.42497
Heightened Def Con from 3.42497 to 3.42497
Heightened Def Con from 3.42497 to 3.42497
Heightened Def Con from 3.42497 to 3.42497
Heightened Def Con from 3.42497 to 3.42497
Heightened Def Con from 3.42497 to 3.42497
Heightened Def Con from 3.42497 to 3.42497
Heightened Def Con from 3.42497 to 3.42497
Heightened Def Con from 3.42497 to 3.42497
Heightened Def Con from 3.42497 to 3.42497
Heightened Def Con from 3.42497 to 3.42497
Heightened Def Con from 3.42497 to 3.42497
Heightened Def Con from 3.42497 to 3.42497
Heightened Def Con from 3.42497 to 3.42497
Heightened Def Con from 3.42497 to 3.42497
Heightened Def Con from 3.42497 +to 3.42497
Heightened Def Con from 3.42497 +to 3.42497
Heightened Def Con from 3.42497 to 3.42497
Heightened Def Con from 3.42497 to 3.42497
Heightened Def Con from 3.42497 to 3.42497
Heightened Def Con from 3.42497 to 3.42497
Heightened Def Con from 3.42497 to 3.42497
Heightened Def Con from 3.42497 to 3.42497
Heightened Def Con from 3.42497 to 3.42497
Heightened Def Con from 3.42497 to 3.42497
Heightened Def Con from 3.42497 to 3.42497
Heightened Def Con from 3.42497 to 3.42497
Heightened Def Con from 3.42497 to 3.42497
Heightened Def Con from 3.42497 to 3.42497
Heightened Def Con from 3.42497 to 3.42497
Heightened Def Con from 3.42497 to 3.42497
Heightened Def Con from 3.42497 to 3.42497
Heightened Def Con from 3.42497 to 3.42497
Heightened Def Con from 3.42497 to 3.42497
Heightened Def Con from 3.42497 to 3.42497
Heightened Def Con from 3.42497 +to 3.42497
Heightened Def Con from 3.42497 to 3.42497
Heightened Def Con from 3.42497 to 3.42497
Heightened Def Con from 3.42497 to 3.42497
Heightened Def Con from 3.42497 to 3.42497
Heightened Def Con from 3.42497 to 3.42497
Heightened Def Con from 3.42497 to 3.42497
Heightened Def Con from 3.42497 +to 3.42497
Heightened Def Con from 3.42497 to 3.42497
Heightened Def Con from 3.42497 to 3.42497
Heightened Def Con from 3.42497 to 3.42497
Heightened Def Con from 3.42497 to 3.42497
Heightened Def Con from 3.42497 to 3.42497
Heightened Def Con from 3.42497 to 3.42497
Heightened Def Con from 3.42497 to 3.42497
Heightened Def Con from 3.42497 +to 3.42497
Heightened Def Con from 3.42497 to 3.42497
Heightened Def Con from 3.42497 to 3.42497
Heightened Def Con from 3.42497 to 3.42497
Heightened Def Con from 3.42497 to 3.42497
Heightened Def Con from 3.42497 to 3.42497
Heightened Def Con from 3.42497 to 3.42497
Heightened Def Con from 3.42497 to 3.42497
Heightened Def Con from 3.42497 to 3.42497
Heightened Def Con from 3.42497 to 3.42497
Heightened Def Con from 3.42497 to 3.42497
Heightened Def Con from 3.42497 to 3.42497
Heightened Def Con from 3.42497 to 3.42497
Heightened Def Con from 3.42497 to 3.42497
Heightened Def Con from 3.42497 to 3.42497
Heightened Def Con from 3.42497 to 3.42497
Heightened Def Con from 3.42497 to 3.42497
Heightened Def Con from 3.42497 to 3.42497
Heightened Def Con from 3.42497 to 3.42497
Heightened Def Con from 3.42497 to 3.42497
Heightened Def Con from 3.42497 +to 3.42497
Heightened Def Con from 3.42497 to 3.42497
Heightened Def Con from 3.42497 to 3.42497
Heightened Def Con from 3.42497 to 3.42497
Heightened Def Con from 3.42497 to 3.42497
Heightened Def Con from 3.42497 to 3.42497
Heightened Def Con from 3.42497 to 3.42497
Heightened Def Con from 3.42497 to 3.42497
Heightened Def Con from 3.42497 to 3.42497
Heightened Def Con from 3.42497 to 3.42497
Heightened Def Con from 3.42497 to 3.42497
Heightened Def Con from 3.42497 to 3.42497
Heightened Def Con from 3.42497 to 3.42497
Heightened Def Con from 3.42497 to 3.42497
Heightened Def Con from 3.42497 to 3.42497
Heightened Def Con from 3.42497 to 3.42497
Heightened Def Con from 3.42497 to 3.42497
Heightened Def Con from 3.42497 to 3.42497
Heightened Def Con from 3.42497 to 3.42497
Heightened Def Con from 3.42497 to 3.42497
Heightened Def Con from 3.42497 to 3.42497
Heightened Def Con from 3.42497 to 3.42497
Heightened Def Con from 3.42497 to 3.42497
Heightened Def Con from 3.42497 +to 3.42497
Heightened Def Con from 3.42497 to 3.42497
Heightened Def Con from 3.42497 to 3.42497
Heightened Def Con from 3.42497 to 3.42497
Heightened Def Con from 3.42497 to 3.42497
Heightened Def Con from 3.42497 to 3.42497
Heightened Def Con from 3.42497 to 3.42497
Heightened Def Con from 3.42497 to 3.42497
Heightened Def Con from 3.42497 to 3.42497
Heightened Def Con from 3.42497 to 3.42497
Heightened Def Con from 3.42497 to 3.42497
Heightened Def Con from 3.42497 to 3.42497
Heightened Def Con from 3.42497 to 3.42497
Heightened Def Con from 3.42497 to 3.42497
Heightened Def Con from 3.42497 to 3.42497
Heightened Def Con from 3.42497 to 3.42497
Heightened Def Con from 3.42497 to 3.42497
Heightened Def Con from 3.42497 to 3.42497
Heightened Def Con from 3.42497 to 3.42497
Heightened Def Con from 3.42497 to 3.42497
Heightened Def Con from 3.42497 to 3.42497
Heightened Def Con from 3.42497 to 3.42497
Heightened Def Con from 3.42497 to 3.42497
Heightened Def Con from 3.42497 to 3.42497
Heightened Def Con from 3.42497 to 3.42497
Heightened Def Con from 3.42497 to 3.42497
Heightened Def Con from 3.42497 to 3.42497
Heightened Def Con from 3.42497 to 3.42497
Heightened Def Con from 3.42497 to 3.42497
Heightened Def Con from 3.42497 to 3.42497
Heightened Def Con from 3.42497 to 3.42497
Heightened Def Con from 3.42497 +to 3.42497
Heightened Def Con from 3.42497 to 3.42497
Heightened Def Con from 3.42497 to 3.42497
Heightened Def Con from 3.42497 to 3.42497
Heightened Def Con from 3.42497 to 3.42497
Heightened Def Con from 3.42497 to 3.42497
Heightened Def Con from 3.42497 to 3.42497
Heightened Def Con from 3.42497 to 3.42497
Heightened Def Con from 3.42497 to 3.42497
Heightened Def Con from 3.42497 to 3.42497
Heightened Def Con from 3.42497 to 3.42497
Heightened Def Con from 3.42497 to 3.42497
Heightened Def Con from 3.42497 to 3.42497
Heightened Def Con from 3.42497 to 3.42497
Heightened Def Con from 3.42497 to 3.42497
Heightened Def Con from 3.42497 to 3.42497
Heightened Def Con from 3.42497 to 3.42497
Heightened Def Con from 3.42497 to 3.42497
Heightened Def Con from 3.42497 to 3.42497
Heightened Def Con from 3.42497 to 3.42497
Heightened Def Con from 3.42497 to 3.42497
Heightened Def Con from 3.42497 to 3.42497
Heightened Def Con from 3.42497 to 3.42497
Heightened Def Con from 3.42497 +to 3.42497
Heightened Def Con from 3.42497 to 3.42497
Heightened Def Con from 3.42497 +to 3.42497
Heightened Def Con from 3.42497 to 3.42497
Heightened Def Con from 3.42497 to 3.42497
Heightened Def Con from 3.42497 to 3.42497
Heightened Def Con from 3.42497 to 3.42497
Heightened Def Con from 3.42497 to 3.42497
Heightened Def Con from 3.42497 to 3.42497
Heightened Def Con from 3.42497 to 3.42497
Heightened Def Con from 3.42497 to 3.42497
Heightened Def Con from 3.42497 to 3.42497
Heightened Def Con from 3.42497 to 3.42497
Heightened Def Con from 3.42497 to 3.42497
Heightened Def Con from 3.42497 to 3.42497
Heightened Def Con from 3.42497 to 3.42497
Heightened Def Con from 3.42497 to 3.42497
Heightened Def Con from 3.42497 to 3.42497
Heightened Def Con from 3.42497 to 3.42497
Heightened Def Con from 3.42497 to 3.42497
Heightened Def Con from 3.49256 to 3.49256
Heightened Def Con from 3.49256 to 3.49256
Heightened Def Con from 3.49256 to 3.49256
Heightened Def Con from 3.49256 to 3.49256
Heightened Def Con from 3.49256 to 3.49256
Heightened Def Con from 3.49256 to 3.49256
Heightened Def Con from 3.49256 +to 3.49256
Heightened Def Con from 3.49256 to 3.49256
Heightened Def Con from 3.49256 to 3.49256
Heightened Def Con from 3.49256 to 3.49256
Heightened Def Con from 3.49256 to 3.49256
Heightened Def Con from 3.49256 to 3.49256
Heightened Def Con from 3.49256 to 3.49256
Heightened Def Con from 3.49256 to 3.49256
Heightened Def Con from 3.49256 to 3.49256
Heightened Def Con from 3.49256 to 3.49256
Heightened Def Con from 3.49256 to 3.49256
Heightened Def Con from 3.49256 to 3.49256
Heightened Def Con from 3.49256 to 3.49256
Heightened Def Con from 3.49256 to 3.49256
Heightened Def Con from 3.49256 to 3.49256
Heightened Def Con from 3.49256 to 3.49256
Heightened Def Con from 3.49256 to 3.49256
Heightened Def Con from 3.49256 to 3.49256
Heightened Def Con from 3.49256 to 3.49256
Heightened Def Con from 3.49256 to 3.49256
Heightened Def Con from 3.49256 to 3.49256
Heightened Def Con from 3.49256 to 3.49256
Heightened Def Con from 3.49256 to 3.49256
Heightened Def Con from 3.49256 to 3.49256
Heightened Def Con from 3.49256 to 3.49256
Heightened Def Con from 3.49256 to 3.49256
Heightened Def Con from 3.49256 to 3.49256
Heightened Def Con from 3.49256 to 3.49256
Heightened Def Con from 3.49256 to 3.49256
Heightened Def Con from 3.49256 to 3.49256
Heightened Def Con from 3.49256 to 3.49256
Heightened Def Con from 3.49256 to 3.49256
Heightened Def Con from 3.49256 to 3.49256
Heightened Def Con from 3.49256 to 3.49256
Heightened Def Con from 3.49256 to 3.49256
Heightened Def Con from 3.49256 +to 3.49256
Heightened Def Con from 3.49256 to 3.49256
Heightened Def Con from 3.49256 to 3.49256
Heightened Def Con from 3.49256 to 3.49256
Heightened Def Con from 3.49256 to 3.49256
Heightened Def Con from 3.49256 to 3.49256
Heightened Def Con from 3.49256 to 3.49256
Heightened Def Con from 3.49256 to 3.49256
Heightened Def Con from 3.49256 to 3.49256
Heightened Def Con from 3.49256 to 3.49256
Heightened Def Con from 3.49256 to 3.49256
Heightened Def Con from 3.49256 to 3.49256
Heightened Def Con from 3.49256 to 3.49256
Heightened Def Con from 3.49256 to 3.49256
Heightened Def Con from 3.49256 to 3.49256
Heightened Def Con from 3.49256 to 3.49256
Heightened Def Con from 3.49256 to 3.49256
Heightened Def Con from 3.49256 to 3.49256
Heightened Def Con from 3.49256 to 3.49256
Heightened Def Con from 3.49256 to 3.49256
Heightened Def Con from 3.49256 to 3.49256
Heightened Def Con from 3.49256 to 3.49256
Heightened Def Con from 3.49256 to 3.49256
Heightened Def Con from 3.49256 to 3.49256
Heightened Def Con from 3.65838 to 3.65838
Heightened Def Con from 3.65838 to 3.65838
Heightened Def Con from 3.65838 to 3.65838
Heightened Def Con from 3.65838 to 3.65838
Heightened Def Con from 3.65839 to 3.65839
Heightened Def Con from 3.65839 to 3.65839
Heightened Def Con from 3.65839 to 3.65839
Heightened Def Con from 3.65839 to 3.65839
Heightened Def Con from 3.65839 to 3.65839
Heightened Def Con from 3.8169 to 3.8169
Heightened Def Con from 3.8169 to 3.8169
Heightened Def Con from 3.8169 to 3.8169
Heightened Def Con from 3.8169 to 3.8169
Heightened Def Con from 3.8169 to 3.8169
Heightened Def Con from 3.8169 to 3.8169
Heightened Def Con from 3.8169 to 3.8169
Heightened Def Con from 3.8169 to 3.8169
Heightened Def Con from 3.8169 to 3.8169
Heightened Def Con from 3.8169 to 3.8169
Heightened Def Con from 3.8169 to 3.8169
Heightened Def Con from 3.8169 to 3.8169
Heightened Def Con from 3.8169 to 3.8169
Heightened Def Con from 3.8169 to 3.8169
Heightened Def Con from 3.8169 to 3.8169
Heightened Def Con from 3.8169 to 3.8169
Heightened Def Con from 3.8169 to 3.8169
Heightened Def Con from 3.8169 to 3.8169
Heightened Def Con from 3.8169 to 3.8169
Heightened Def Con from 3.8169 to 3.8169
Heightened Def Con from 3.8169 to 3.8169
Heightened Def Con from 3.8169 to 3.8169
Heightened Def Con from 3.8169 to 3.8169
Heightened Def Con from 3.8169 +to 3.8169
Heightened Def Con from 3.8169 to 3.8169
Heightened Def Con from 3.8169 to 3.8169
Heightened Def Con from 3.8169 to 3.8169
Heightened Def Con from 3.8169 to 3.8169
Heightened Def Con from 3.8169 to 3.8169
Heightened Def Con from 3.8169 to 3.8169
Heightened Def Con from 3.8169 to 3.8169
Heightened Def Con from 3.8169 to 3.8169
Heightened Def Con from 3.8169 to 3.8169
Heightened Def Con from 3.8169 to 3.8169
Heightened Def Con from 3.8169 to 3.8169
Heightened Def Con from 3.8169 to 3.8169
Heightened Def Con from 3.8169 to 3.8169
Heightened Def Con from 3.8169 to 3.8169
Heightened Def Con from 3.8169 to 3.8169
Heightened Def Con from 3.8169 to 3.8169
Heightened Def Con from 3.8169 to 3.8169
Heightened Def Con from 3.8169 to 3.8169
Heightened Def Con from 3.8169 to 3.8169
Heightened Def Con from 3.8169 to 3.8169
Heightened Def Con from 3.8169 to 3.8169
Heightened Def Con from 3.8169 to 3.8169
Heightened Def Con from 3.8169 to 3.8169
Heightened Def Con from 3.8169 to 3.8169
Heightened Def Con from 3.8169 to 3.8169
Heightened Def Con from 3.8169 to 3.8169
Heightened Def Con from 3.8169 to 3.8169
Heightened Def Con from 3.8169 to 3.8169
Heightened Def Con from 3.8169 to 3.8169
Heightened Def Con from 3.8169 to 3.8169
Heightened Def Con from 3.8169 to 3.8169
Heightened Def Con from 3.8169 to 3.8169
Heightened Def Con from 3.8169 to 3.8169
Heightened Def Con from 3.8169 to 3.8169
Heightened Def Con from 3.8169 to 3.8169
Heightened Def Con from 3.8169 to 3.8169
Heightened Def Con from 3.8169 to 3.8169
Heightened Def Con from 3.8169 to 3.8169
Heightened Def Con from 3.8169 to 3.8169
Heightened Def Con from 3.8169 +to 3.8169
Heightened Def Con from 3.8169 to 3.8169
Heightened Def Con from 3.8169 to 3.8169
Heightened Def Con from 3.8169 to 3.8169
Heightened Def Con from 3.8169 to 3.8169
Heightened Def Con from 3.8169 to 3.8169
Heightened Def Con from 3.8169 to 3.8169
Heightened Def Con from 3.8169 to 3.8169
Heightened Def Con from 3.90327 to 3.90327
Heightened Def Con from 3.90327 to 3.90327
Heightened Def Con from 3.90327 to 3.90327
Heightened Def Con from 3.90327 to 3.90327
Heightened Def Con from 3.90327 to 3.90327
Heightened Def Con from 3.90327 to 3.90327
Heightened Def Con from 3.90327 to 3.90327
Heightened Def Con from 3.90327 to 3.90327
Heightened Def Con from 3.90327 to 3.90327
Heightened Def Con from 3.90327 to 3.90327
Heightened Def Con from 3.90327 to 3.90327
Heightened Def Con from 3.90327 to 3.90327
Heightened Def Con from 3.90327 to 3.90327
Heightened Def Con from 3.90327 to 3.90327
Heightened Def Con from 3.90327 to 3.90327
Heightened Def Con from 3.90327 to 3.90327
Heightened Def Con from 3.90327 to 3.90327
Heightened Def Con from 3.90327 +to 3.90327
Heightened Def Con from 3.90327 to 3.90327
Heightened Def Con from 3.90327 to 3.90327
Heightened Def Con from 3.90327 to 3.90327
Heightened Def Con from 3.90327 to 3.90327
Heightened Def Con from 3.90327 to 3.90327
Heightened Def Con from 3.90327 to 3.90327
Heightened Def Con from 3.90327 to 3.90327
Heightened Def Con from 3.90327 to 3.90327
Heightened Def Con from 3.90327 to 3.90327
Heightened Def Con from 3.90327 to 3.90327
Heightened Def Con from 3.90327 to 3.90327
Heightened Def Con from 3.90327 to 3.90327
Heightened Def Con from 3.90327 to 3.90327
Heightened Def Con from 3.90327 to 3.90327
Heightened Def Con from 3.90327 to 3.90327
Heightened Def Con from 3.90327 to 3.90327
Heightened Def Con from 3.90327 to 3.90327
Heightened Def Con from 3.90327 to 3.90327
Heightened Def Con from 3.90327 to 3.90327
Heightened Def Con from 3.90327 to 3.90327
Heightened Def Con from 3.90327 to 3.90327
Heightened Def Con from 3.90327 to 3.90327
Heightened Def Con from 3.90327 to 3.90327
Heightened Def Con from 3.90327 to 3.90327
Heightened Def Con from 3.90327 to 3.90327
Heightened Def Con from 3.90327 to 3.90327
Heightened Def Con from 3.90327 to 3.90327
Heightened Def Con from 3.90327 to 3.90327
Heightened Def Con from 4.0488 to 4.0488
Heightened Def Con from 4.0488 to 4.0488
Heightened Def Con from 4.0488 to 4.0488
Heightened Def Con from 4.0488 to 4.0488
Heightened Def Con from 4.0488 to 4.0488
Heightened Def Con from 4.20662 to 4.20662
Heightened Def Con from 4.20662 to 4.20662
Heightened Def Con from 4.20662 to 4.20662
Heightened Def Con from 4.20662 to 4.20662
Heightened Def Con from 4.20662 to 4.20662
Heightened Def Con from 4.20662 to 4.20662
Heightened Def Con from 4.20662 to 4.20662
Heightened Def Con from 4.20662 to 4.20662
Heightened Def Con from 4.20662 to 4.20662
Heightened Def Con from 4.20662 to 4.20662
Heightened Def Con from 4.20662 to 4.20662
Heightened Def Con from 4.20662 to 4.20662
Heightened Def Con from 4.20662 to 4.20662
Heightened Def Con from 4.20662 to 4.20662
Heightened Def Con from 4.20662 to 4.20662
Heightened Def Con from 4.20662 to 4.20662
Heightened Def Con from 4.20662 to 4.20662
Heightened Def Con from 4.20662 to 4.20662
Heightened Def Con from 4.20662 to 4.20662
Heightened Def Con from 4.20662 to 4.20662
Heightened Def Con from 4.20662 to 4.20662
Heightened Def Con from 4.20662 to 4.20662
Heightened Def Con from 4.20662 to 4.20662
Heightened Def Con from 4.20662 to 4.20662
Heightened Def Con from 4.20662 to 4.20662
Heightened Def Con from 4.20662 to 4.20662
Heightened Def Con from 4.20662 to 4.20662
Heightened Def Con from 4.20662 to 4.20662
Heightened Def Con from 4.20662 to 4.20662
Heightened Def Con from 4.20662 to 4.20662
Heightened Def Con from 4.20662 to 4.20662
Heightened Def Con from 4.20662 to 4.20662
Heightened Def Con from 4.20662 to 4.20662
Heightened Def Con from 4.20662 to 4.20662
Heightened Def Con from 4.20662 to 4.20662
Heightened Def Con from 4.20662 to 4.20662
Heightened Def Con from 4.20662 to 4.20662
Heightened Def Con from 4.20662 to 4.20662
Heightened Def Con from 4.20662 to 4.20662
Heightened Def Con from 4.20662 to 4.20662
Heightened Def Con from 4.20662 to 4.20662
Heightened Def Con from 4.20662 to 4.20662
Heightened Def Con from 4.20662 to 4.20662
Heightened Def Con from 4.20662 to 4.20662
Heightened Def Con from 4.20662 to 4.20662
Heightened Def Con from 4.20662 to 4.20662
Heightened Def Con from 4.20662 to 4.20662
Heightened Def Con from 4.20662 to 4.20662
Heightened Def Con from 4.20662 to 4.20662
Heightened Def Con from 4.20662 to 4.20662
Heightened Def Con from 4.20662 to 4.20662
Heightened Def Con from 4.20662 to 4.20662
Heightened Def Con from 4.20662 to 4.20662
Heightened Def Con from 4.20662 to 4.20662
Heightened Def Con from 4.20662 +to 4.20662
Heightened Def Con from 4.20662 to 4.20662
Heightened Def Con from 4.20662 to 4.20662
Heightened Def Con from 4.20662 to 4.20662
Heightened Def Con from 4.20662 to 4.20662
Heightened Def Con from 4.20662 to 4.20662
Heightened Def Con from 4.20662 to 4.20662
Heightened Def Con from 4.20662 to 4.20662
Heightened Def Con from 4.20662 to 4.20662
Heightened Def Con from 4.20662 to 4.20662
Heightened Def Con from 4.20662 to 4.20662
Heightened Def Con from 4.20662 to 4.20662
Heightened Def Con from 4.20662 to 4.20662
Heightened Def Con from 4.20662 to 4.20662
Heightened Def Con from 4.20662 to 4.20662
Heightened Def Con from 4.20662 to 4.20662
Heightened Def Con from 4.20662 to 4.20662
Heightened Def Con from 4.20662 to 4.20662
Heightened Def Con from 4.32266 to 4.32266
Heightened Def Con from 4.32266 to 4.32266
Heightened Def Con from 4.32266 +to 4.32266
Heightened Def Con from 4.32266 to 4.32266
Heightened Def Con from 4.32266 to 4.32266
Heightened Def Con from 4.32266 to 4.32266
Heightened Def Con from 4.32266 to 4.32266
Heightened Def Con from 4.32266 to 4.32266
Heightened Def Con from 4.32266 to 4.32266
Heightened Def Con from 4.32266 to 4.32266
Heightened Def Con from 4.32266 to 4.32266
Heightened Def Con from 4.32266 to 4.32266
Heightened Def Con from 4.32266 to 4.32266
Heightened Def Con from 4.32266 +to 4.32266
Heightened Def Con from 4.32266 to 4.32266
Heightened Def Con from 4.32266 to 4.32266
Heightened Def Con from 4.32266 to 4.32266
Heightened Def Con from 4.32266 to 4.32266
Heightened Def Con from 4.32266 to 4.32266
Heightened Def Con from 4.32266 to 4.32266
Heightened Def Con from 4.32266 to 4.32266
Heightened Def Con from 4.32266 to 4.32266
Heightened Def Con from 4.4505 to 4.4505
Heightened Def Con from 4.4505 to 4.4505
Heightened Def Con from 4.4505 to 4.4505
Heightened Def Con from 4.4505 to 4.4505
Heightened Def Con from 4.4505 to 4.4505
Heightened Def Con from 4.4505 to 4.4505
Heightened Def Con from 4.4505 to 4.4505
Heightened Def Con from 4.4505 to 4.4505
Heightened Def Con from 4.4505 to 4.4505
Heightened Def Con from 4.4505 to 4.4505
Heightened Def Con from 4.4505 to 4.4505
Heightened Def Con from 4.4505 to 4.4505
Heightened Def Con from 4.4505 to 4.4505
Heightened Def Con from 4.4505 to 4.4505
Heightened Def Con from 4.4505 to 4.4505
Heightened Def Con from 4.4505 to 4.4505
Heightened Def Con from 4.4505 to 4.4505
Heightened Def Con from 4.4505 to 4.4505
Heightened Def Con from 4.4505 to 4.4505
Heightened Def Con from 4.4505 to 4.4505
Heightened Def Con from 4.4505 to 4.4505
Heightened Def Con from 4.4505 to 4.4505
Heightened Def Con from 4.4505 to 4.4505
Heightened Def Con from 4.4505 to 4.4505
Heightened Def Con from 4.4505 to 4.4505
Heightened Def Con from 4.4505 to 4.4505
Heightened Def Con from 4.4505 to 4.4505
Heightened Def Con from 4.4505 to 4.4505
Heightened Def Con from 4.4505 to 4.4505
Heightened Def Con from 4.4505 to 4.4505
Heightened Def Con from 4.4505 to 4.4505
Heightened Def Con from 4.4505 to 4.4505
Heightened Def Con from 4.4505 to 4.4505
Heightened Def Con from 4.4505 to 4.4505
Heightened Def Con from 4.4505 to 4.4505
Heightened Def Con from 4.4505 to 4.4505
Heightened Def Con from 4.4505 to 4.4505
Heightened Def Con from 4.4505 to 4.4505
Heightened Def Con from 4.4505 to 4.4505
Heightened Def Con from 4.4505 to 4.4505
Heightened Def Con from 4.4505 to 4.4505
Heightened Def Con from 4.4505 to 4.4505
Heightened Def Con from 4.4505 to 4.4505
Heightened Def Con from 4.4505 to 4.4505
Heightened Def Con from 4.4505 to 4.4505
Heightened Def Con from 4.4505 to 4.4505
Heightened Def Con from 4.4505 to 4.4505
Heightened Def Con from 4.45099 to 4.45099
Heightened Def Con from 4.45099 to 4.45099
Heightened Def Con from 4.45099 to 4.45099
Heightened Def Con from 4.45101 to 4.45101
Heightened Def Con from 4.45101 to 4.45101
Heightened Def Con from 4.45101 to 4.45101
Heightened Def Con from 4.45101 to 4.45101
Heightened Def Con from 4.45101 to 4.45101
Heightened Def Con from 4.45101 to 4.45101
Heightened Def Con from 4.45101 to 4.45101
Heightened Def Con from 4.45101 to 4.45101
Heightened Def Con from 4.45101 to 4.45101
Heightened Def Con from 4.45101 to 4.45101
Heightened Def Con from 4.45101 to 4.45101
Heightened Def Con from 4.45101 to 4.45101
Heightened Def Con from 4.45101 to 4.45101
Heightened Def Con from 4.45101 to 4.45101
Heightened Def Con from 4.45101 to 4.45101
Heightened Def Con from 4.45101 to 4.45101
Heightened Def Con from 4.45101 to 4.45101
Heightened Def Con from 4.45101 to 4.45101
Heightened Def Con from 4.45101 to 4.45101
Heightened Def Con from 4.45101 to 4.45101
Heightened Def Con from 4.45101 to 4.45101
Heightened Def Con from 4.45101 to 4.45101
Heightened Def Con from 4.45101 to 4.45101
Heightened Def Con from 4.45101 to 4.45101
Heightened Def Con from 4.45101 to 4.45101
Heightened Def Con from 4.45101 to 4.45101
Heightened Def Con from 4.45101 to 4.45101
Heightened Def Con from 4.45101 to 4.45101
Heightened Def Con from 4.45101 to 4.45101
Heightened Def Con from 4.45101 to 4.45101
Heightened Def Con from 4.45101 to 4.45101
Heightened Def Con from 4.45101 to 4.45101
Heightened Def Con from 4.45101 to 4.45101
Heightened Def Con from 4.45101 to 4.45101
Heightened Def Con from 4.45101 to 4.45101
Heightened Def Con from 4.45101 to 4.45101
Heightened Def Con from 4.45101 to 4.45101
Heightened Def Con from 4.45101 to 4.45101
Heightened Def Con from 4.45101 to 4.45101
Heightened Def Con from 4.45101 to 4.45101
Heightened Def Con from 4.45101 to 4.45101
Heightened Def Con from 4.45101 to 4.45101
Heightened Def Con from 4.45101 to 4.45101
Heightened Def Con from 4.45101 to 4.45101
Heightened Def Con from 4.45101 to 4.45101
Heightened Def Con from 4.45101 to 4.45101
Heightened Def Con from 4.45101 to 4.45101
Heightened Def Con from 4.45101 to 4.45101
Heightened Def Con from 4.45101 to 4.45101
Heightened Def Con from 4.45101 to 4.45101
Heightened Def Con from 4.45101 to 4.45101
Heightened Def Con from 4.45101 to 4.45101
Heightened Def Con from 4.45101 to 4.45101
Heightened Def Con from 4.45101 to 4.45101
Heightened Def Con from 4.45101 to 4.45101
Heightened Def Con from 4.45101 to 4.45101
Heightened Def Con from 4.45101 to 4.45101
Heightened Def Con from 4.45101 to 4.45101
Heightened Def Con from 4.45101 to 4.45101
Heightened Def Con from 4.45101 to 4.45101
Heightened Def Con from 4.45101 to 4.45101
Heightened Def Con from 4.45101 to 4.45101
Heightened Def Con from 4.45101 to 4.45101
Heightened Def Con from 4.45101 to 4.45101
Heightened Def Con from 4.45101 to 4.45101
Heightened Def Con from 4.45101 to 4.45101
Heightened Def Con from 4.45101 to 4.45101
Heightened Def Con from 4.45101 to 4.45101
Heightened Def Con from 4.45101 to 4.45101
Heightened Def Con from 4.45101 to 4.45101
Heightened Def Con from 4.45101 to 4.45101
Heightened Def Con from 4.45101 to 4.45101
Heightened Def Con from 4.45101 to 4.45101
Heightened Def Con from 4.45101 to 4.45101
Heightened Def Con from 4.45101 to 4.45101
Heightened Def Con from 4.45101 to 4.45101
Heightened Def Con from 4.45101 to 4.45101
Heightened Def Con from 4.45101 to 4.45101
Heightened Def Con from 4.45101 to 4.45101
Heightened Def Con from 4.45101 to 4.45101
Heightened Def Con from 4.45101 to 4.45101
Heightened Def Con from 4.45101 to 4.45101
Heightened Def Con from 4.45101 to 4.45101
Heightened Def Con from 4.45101 to 4.45101
Heightened Def Con from 4.45101 to 4.45101
Heightened Def Con from 4.45101 to 4.45101
Heightened Def Con from 4.45101 to 4.45101
Heightened Def Con from 4.45101 to 4.45101
Heightened Def Con from 4.45101 to 4.45101
Heightened Def Con from 4.45101 to 4.45101
Heightened Def Con from 4.45101 to 4.45101
Heightened Def Con from 4.45101 to 4.45101
Heightened Def Con from 4.45101 to 4.45101
Heightened Def Con from 4.45101 to 4.45101
Heightened Def Con from 4.45101 to 4.45101
Heightened Def Con from 4.45101 to 4.45101
Heightened Def Con from 4.45101 to 4.45101
Heightened Def Con from 4.45101 to 4.45101
Heightened Def Con from 4.45101 to 4.45101
Heightened Def Con from 4.45101 to 4.45101
Heightened Def Con from 4.45101 to 4.45101
Heightened Def Con from 4.45101 to 4.45101
Heightened Def Con from 4.45101 to 4.45101
Heightened Def Con from 4.45101 to 4.45101
Heightened Def Con from 4.45101 to 4.45101
Heightened Def Con from 4.45101 to 4.45101
Heightened Def Con from 4.45101 to 4.45101
Heightened Def Con from 4.61444 to 4.61444
Heightened Def Con from 4.61444 to 4.61444
Heightened Def Con from 4.61444 to 4.61444
Heightened Def Con from 4.61444 to 4.61444
Heightened Def Con from 4.61444 to 4.61444
Heightened Def Con from 4.61444 to 4.61444
Heightened Def Con from 4.61444 to 4.61444
Heightened Def Con from 4.61444 to 4.61444
Heightened Def Con from 4.61444 to 4.61444
Heightened Def Con from 4.61444 to 4.61444
Heightened Def Con from 4.61444 to 4.61444
Heightened Def Con from 4.61444 to 4.61444
Heightened Def Con from 4.61444 to 4.61444
Heightened Def Con from 4.61444 to 4.61444
Heightened Def Con from 4.61444 to 4.61444
Heightened Def Con from 4.61444 to 4.61444
Heightened Def Con from 4.61444 to 4.61444
Heightened Def Con from 4.61444 to 4.61444
Heightened Def Con from 4.61444 to 4.61444
[...]
Heightened Def Con from 9.6625 to 9.6625
Heightened Def Con from 9.6625 to 9.6625
Heightened Def Con from 9.6625 to 9.6625
Heightened Def Con from 9.6625 to 9.6625
Heightened Def Con from 9.6625 to 9.6625
Heightened Def Con from 9.6625 to 9.6625
Heightened Def Con from 9.6625 to 9.6625
Heightened Def Con from 9.6625 to 9.6625
Heightened Def Con from 9.6625 to 9.6625
Heightened Def Con from 9.6625 to 9.6625
Heightened Def Con from 9.6625 to 9.6625
Heightened Def Con from 9.6625 to 9.6625
Heightened Def Con from 9.66301 to 9.66301
Heightened Def Con from 9.66301 to 9.66301
Heightened Def Con from 9.66301 to 9.66301
Heightened Def Con from 9.66301 to 9.66301
Heightened Def Con from 9.66301 to 9.66301
Heightened Def Con from 9.66301 to 9.66301
Heightened Def Con from 9.66301 to 9.66301
Heightened Def Con from 9.66301 to 9.66301
Heightened Def Con from 9.66301 to 9.66301
Heightened Def Con from 9.66301 to 9.66301
Heightened Def Con from 9.66301 to 9.66301
Heightened Def Con from 9.66301 to 9.66301
Heightened Def Con from 9.66301 to 9.66301
Heightened Def Con from 9.66301 to 9.66301
Heightened Def Con from 9.66301 to 9.66301
Heightened Def Con from 9.66301 to 9.66301
Heightened Def Con from 9.66301 to 9.66301
Heightened Def Con from 9.66301 to 9.66301
Heightened Def Con from 9.66301 +to 9.66301
Heightened Def Con from 9.66301 to 9.66301
Heightened Def Con from 9.66301 to 9.66301
Heightened Def Con from 9.66301 to 9.66301
Heightened Def Con from 9.8258 to 9.8258
Heightened Def Con from 9.8258 to 9.8258
Heightened Def Con from 9.8258 to 9.8258
Heightened Def Con from 9.8258 to 9.8258
Heightened Def Con from 9.8258 to 9.8258
Heightened Def Con from 9.8258 to 9.8258
Heightened Def Con from 9.8258 to 9.8258
Heightened Def Con from 9.8258 to 9.8258
Heightened Def Con from 9.8258 to 9.8258
Heightened Def Con from 9.8258 to 9.8258
Heightened Def Con from 9.8258 to 9.8258
Heightened Def Con from 9.8258 to 9.8258
Heightened Def Con from 9.8258 to 9.8258
Heightened Def Con from 9.8258 to 9.8258
Heightened Def Con from 9.8258 to 9.8258
Heightened Def Con from 9.8258 to 9.8258
Heightened Def Con from 9.8258 to 9.8258
Heightened Def Con from 9.8258 to 9.8258
Heightened Def Con from 9.8258 to 9.8258
Heightened Def Con from 9.8258 to 9.8258
Heightened Def Con from 9.8258 to 9.8258
Heightened Def Con from 9.8258 to 9.8258
Heightened Def Con from 9.8258 to 9.8258
Heightened Def Con from 9.8258 to 9.8258
Heightened Def Con from 9.8258 to 9.8258
Heightened Def Con from 9.8258 to 9.8258
Heightened Def Con from 9.8258 to 9.8258
Heightened Def Con from 9.8258 to 9.8258
Heightened Def Con from 9.8258 to 9.8258
Heightened Def Con from 9.8258 to 9.8258
Heightened Def Con from 9.8258 to 9.8258
Heightened Def Con from 9.8258 to 9.8258
Heightened Def Con from 9.8258 to 9.8258
Heightened Def Con from 9.8258 to 9.8258
Heightened Def Con from 9.8258 to 9.8258
Heightened Def Con from 9.8258 to 9.8258
Heightened Def Con from 9.8258 to 9.8258
Heightened Def Con from 9.8258 to 9.8258
Heightened Def Con from 9.8258 to 9.8258
Heightened Def Con from 9.8258 to 9.8258
Heightened Def Con from 9.8258 to 9.8258
Heightened Def Con from 9.8258 to 9.8258
Heightened Def Con from 9.8258 to 9.8258
Heightened Def Con from 9.8258 to 9.8258
Heightened Def Con from 9.8258 to 9.8258
Heightened Def Con from 9.8258 to 9.8258
Heightened Def Con from 9.8258 +to 9.8258
Heightened Def Con from 9.8258 to 9.8258
Heightened Def Con from 9.8258 to 9.8258
Heightened Def Con from 9.8258 to 9.8258
Heightened Def Con from 9.8258 to 9.8258
Heightened Def Con from 9.8258 +to 9.8258
Heightened Def Con from 9.8258 to 9.8258
Heightened Def Con from 9.8258 to 9.8258
Heightened Def Con from 9.8258 to 9.8258
Heightened Def Con from 9.8258 to 9.8258
Heightened Def Con from 9.8258 to 9.8258
Heightened Def Con from 9.8258 to 9.8258
Heightened Def Con from 9.8258 to 9.8258
Heightened Def Con from 9.8258 to 9.8258
Heightened Def Con from 9.8258 to 9.8258
Heightened Def Con from 9.8258 to 9.8258
Heightened Def Con from 9.8258 to 9.8258
Heightened Def Con from 9.8258 to 9.8258
Heightened Def Con from 9.8258 to 9.8258
Heightened Def Con from 9.8258 to 9.8258
Heightened Def Con from 9.8258 to 9.8258
Heightened Def Con from 9.8258 to 9.8258
Heightened Def Con from 9.8258 to 9.8258
Heightened Def Con from 9.8258 to 9.8258
Heightened Def Con from 9.8258 to 9.8258
Heightened Def Con from 9.8258 to 9.8258
Heightened Def Con from 9.8258 to 9.8258
Heightened Def Con from 9.8258 to 9.8258
Heightened Def Con from 9.8258 to 9.8258
Heightened Def Con from 9.8258 to 9.8258
Heightened Def Con from 9.8258 to 9.8258
Heightened Def Con from 9.8258 to 9.8258
Heightened Def Con from 9.8258 to 9.8258
Heightened Def Con from 9.8258 +to 9.8258
Heightened Def Con from 9.8258 to 9.8258
Heightened Def Con from 9.8258 to 9.8258
Heightened Def Con from 9.8258 to 9.8258
Heightened Def Con from 9.8258 to 9.8258
Heightened Def Con from 9.8258 to 9.8258
Heightened Def Con from 9.8258 to 9.8258
Heightened Def Con from 9.8258 to 9.8258
Heightened Def Con from 9.8258 to 9.8258
Heightened Def Con from 9.8258 to 9.8258
Heightened Def Con from 9.8258 to 9.8258
Heightened Def Con from 9.8258 to 9.8258
Heightened Def Con from 9.8258 to 9.8258
Heightened Def Con from 9.8258 to 9.8258
Heightened Def Con from 9.8258 to 9.8258
Heightened Def Con from 9.8258 +to 9.8258
Heightened Def Con from 9.85959 to 9.85959
Heightened Def Con from 9.85959 to 9.85959
Heightened Def Con from 9.85959 to 9.85959
Heightened Def Con from 9.85959 +to 9.85959
Heightened Def Con from 9.85959 to 9.85959
Heightened Def Con from 9.85959 to 9.85959
Heightened Def Con from 9.85959 to 9.85959
Heightened Def Con from 9.85959 to 9.85959
Heightened Def Con from 9.85959 to 9.85959
Heightened Def Con from 9.85959 to 9.85959
Heightened Def Con from 9.85959 to 9.85959
Heightened Def Con from 9.85959 to 9.85959
Heightened Def Con from 9.85959 to 9.85959
Heightened Def Con from 9.85959 to 9.85959
Heightened Def Con from 9.85959 to 9.85959
Heightened Def Con from 9.85959 to 9.85959
Heightened Def Con from 9.85959 to 9.85959
Heightened Def Con from 9.85959 to 9.85959
Heightened Def Con from 9.85959 to 9.85959
Heightened Def Con from 9.85959 to 9.85959
Heightened Def Con from 9.85959 to 9.85959
Heightened Def Con from 9.85959 to 9.85959
Heightened Def Con from 9.85959 to 9.85959
Heightened Def Con from 9.85959 to 9.85959
Heightened Def Con from 9.85959 to 9.85959
Heightened Def Con from 9.85959 to 9.85959
Heightened Def Con from 9.85959 to 9.85959
Heightened Def Con from 9.85959 to 9.85959
Heightened Def Con from 9.85959 to 9.85959
Heightened Def Con from 9.85959 to 9.85959
Heightened Def Con from 9.85959 to 9.85959
Heightened Def Con from 9.85959 to 9.85959
Heightened Def Con from 9.85959 to 9.85959
Heightened Def Con from 9.85959 to 9.85959
Heightened Def Con from 9.85959 to 9.85959
Heightened Def Con from 9.85959 to 9.85959
Heightened Def Con from 9.85959 to 9.85959
Heightened Def Con from 9.85959 to 9.85959
Heightened Def Con from 9.85959 to 9.85959
Heightened Def Con from 9.85959 +to 9.85959
Heightened Def Con from 9.85959 to 9.85959
Heightened Def Con from 9.85959 to 9.85959
Heightened Def Con from 10.0702 to 10.0702
Heightened Def Con from 10.0702 to 10.0702
Heightened Def Con from 10.0702 to 10.0702
Heightened Def Con from 10.0702 to 10.0702
Heightened Def Con from 10.0702 +to 10.0702
Heightened Def Con from 10.0702 to 10.0702
Heightened Def Con from 10.0702 to 10.0702
Heightened Def Con from 10.0702 to 10.0702
Heightened Def Con from 10.0702 to 10.0702
Heightened Def Con from 10.0702 to 10.0702
Heightened Def Con from 10.0702 to 10.0702
Heightened Def Con from 10.0702 to 10.0702
Heightened Def Con from 10.0702 to 10.0702
Heightened Def Con from 10.0702 to 10.0702
Heightened Def Con from 10.0702 to 10.0702
Heightened Def Con from 10.0702 to 10.0702
Heightened Def Con from 10.0702 to 10.0702
Heightened Def Con from 10.0702 to 10.0702
Heightened Def Con from 10.0702 to 10.0702
Heightened Def Con from 10.0702 to 10.0702
Heightened Def Con from 10.0702 to 10.0702
Heightened Def Con from 10.0702 to 10.0702
Heightened Def Con from 10.0702 to 10.0702
Heightened Def Con from 10.0702 to 10.0702
Heightened Def Con from 10.0702 to 10.0702
Heightened Def Con from 10.0702 to 10.0702
Heightened Def Con from 10.0702 to 10.0702
Heightened Def Con from 10.0702 to 10.0702
Heightened Def Con from 10.0702 to 10.0702
Heightened Def Con from 10.0702 to 10.0702
Heightened Def Con from 10.0702 to 10.0702
Heightened Def Con from 10.0702 +to 10.0702
Heightened Def Con from 10.0702 to 10.0702
Heightened Def Con from 10.0702 to 10.0702
Heightened Def Con from 10.0702 +to 10.0702
Heightened Def Con from 10.0702 +to 10.0702
Heightened Def Con from 10.0702 to 10.0702
Heightened Def Con from 10.0702 to 10.0702
Heightened Def Con from 10.0702 to 10.0702
Heightened Def Con from 10.0702 to 10.0702
Heightened Def Con from 10.0702 to 10.0702
Heightened Def Con from 10.0702 +to 10.0702
Heightened Def Con from 10.0702 to 10.0702
Heightened Def Con from 10.0702 to 10.0702
Heightened Def Con from 10.0702 to 10.0702
Heightened Def Con from 10.0702 to 10.0702
Heightened Def Con from 10.0702 to 10.0702
Heightened Def Con from 10.0702 to 10.0702
Heightened Def Con from 10.0702 to 10.0702
Heightened Def Con from 10.0702 to 10.0702
Heightened Def Con from 10.0702 to 10.0702
Heightened Def Con from 10.0702 +to 10.0702
Heightened Def Con from 10.0702 to 10.0702
Heightened Def Con from 10.0702 to 10.0702
Heightened Def Con from 10.0702 to 10.0702
Heightened Def Con from 10.0702 to 10.0702
Heightened Def Con from 10.0702 to 10.0702
Heightened Def Con from 10.0702 to 10.0702
Heightened Def Con from 10.0702 to 10.0702
Heightened Def Con from 10.0702 to 10.0702
Heightened Def Con from 10.0702 +to 10.0702
Heightened Def Con from 10.0702 to 10.0702
Heightened Def Con from 10.0702 to 10.0702
Heightened Def Con from 10.0702 to 10.0702
Heightened Def Con from 10.0702 to 10.0702
Heightened Def Con from 10.0702 to 10.0702
Heightened Def Con from 10.0702 to 10.0702
Heightened Def Con from 10.0702 to 10.0702
Heightened Def Con from 10.0702 to 10.0702
Heightened Def Con from 10.0702 to 10.0702
Heightened Def Con from 10.0702 to 10.0702
Heightened Def Con from 10.0702 to 10.0702
Heightened Def Con from 10.0702 to 10.0702
Heightened Def Con from 10.0702 to 10.0702
Heightened Def Con from 10.0702 to 10.0702
Heightened Def Con from 10.0702 to 10.0702
Heightened Def Con from 10.0702 to 10.0702
Heightened Def Con from 10.0702 to 10.0702
Heightened Def Con from 10.0702 to 10.0702
Heightened Def Con from 10.0702 to 10.0702
Heightened Def Con from 10.0702 to 10.0702
Heightened Def Con from 10.0702 to 10.0702
Heightened Def Con from 10.0702 to 10.0702
Heightened Def Con from 10.0702 to 10.0702
Heightened Def Con from 10.0702 to 10.0702
Heightened Def Con from 10.0702 to 10.0702
Heightened Def Con from 10.0702 to 10.0702
Heightened Def Con from 10.0702 to 10.0702
Heightened Def Con from 10.0702 to 10.0702
Heightened Def Con from 10.0702 to 10.0702
Heightened Def Con from 10.0702 to 10.0702
Heightened Def Con from 10.0702 to 10.0702
Heightened Def Con from 10.0702 to 10.0702
Heightened Def Con from 10.0702 to 10.0702
Heightened Def Con from 10.0702 to 10.0702
Heightened Def Con from 10.0702 to 10.0702
Heightened Def Con from 10.0702 to 10.0702
Heightened Def Con from 10.0702 to 10.0702
Heightened Def Con from 10.0702 to 10.0702
Heightened Def Con from 10.0702 to 10.0702
Heightened Def Con from 10.0702 to 10.0702
Heightened Def Con from 10.0702 to 10.0702
Heightened Def Con from 10.2336 to 10.2336
Heightened Def Con from 10.2336 to 10.2336
Heightened Def Con from 10.2336 to 10.2336
Heightened Def Con from 10.2336 to 10.2336
Heightened Def Con from 10.2336 to 10.2336
Heightened Def Con from 10.2336 to 10.2336
Heightened Def Con from 10.2336 to 10.2336
Heightened Def Con from 10.2336 to 10.2336
Heightened Def Con from 10.2336 to 10.2336
Heightened Def Con from 10.2336 to 10.2336
Heightened Def Con from 10.2336 to 10.2336
Heightened Def Con from 10.2336 to 10.2336
Heightened Def Con from 10.2336 to 10.2336
Heightened Def Con from 10.2336 to 10.2336
Heightened Def Con from 10.2336 to 10.2336
Heightened Def Con from 10.2336 to 10.2336
Heightened Def Con from 10.2336 to 10.2336
Heightened Def Con from 10.2336 to 10.2336
Heightened Def Con from 10.2336 to 10.2336
Heightened Def Con from 10.2336 +to 10.2336
Heightened Def Con from 10.2336 to 10.2336
Heightened Def Con from 10.2336 to 10.2336
Heightened Def Con from 10.2336 to 10.2336
Heightened Def Con from 10.2336 to 10.2336
Heightened Def Con from 10.2336 to 10.2336
Heightened Def Con from 10.2336 to 10.2336
Heightened Def Con from 10.2336 to 10.2336
Heightened Def Con from 10.2336 to 10.2336
Heightened Def Con from 10.2336 to 10.2336
Heightened Def Con from 10.2336 to 10.2336
Heightened Def Con from 10.2336 to 10.2336
Heightened Def Con from 10.2336 +to 10.2336
Heightened Def Con from 10.2336 to 10.2336
Heightened Def Con from 10.2336 to 10.2336
Heightened Def Con from 10.2336 to 10.2336
Heightened Def Con from 10.2336 to 10.2336
Heightened Def Con from 10.2336 to 10.2336
Heightened Def Con from 10.2336 to 10.2336
Heightened Def Con from 10.2336 to 10.2336
Heightened Def Con from 10.2336 to 10.2336
Heightened Def Con from 10.2336 to 10.2336
Heightened Def Con from 10.2336 to 10.2336
Heightened Def Con from 10.2336 to 10.2336
Heightened Def Con from 10.2336 to 10.2336
Heightened Def Con from 10.2336 to 10.2336
Heightened Def Con from 10.2336 to 10.2336
Heightened Def Con from 10.2336 +to 10.2336
Heightened Def Con from 10.2336 to 10.2336
Heightened Def Con from 10.2336 +to 10.2336
Heightened Def Con from 10.2336 to 10.2336
Heightened Def Con from 10.2336 to 10.2336
Heightened Def Con from 10.2336 to 10.2336
Heightened Def Con from 10.2336 to 10.2336
Heightened Def Con from 10.2336 to 10.2336
Heightened Def Con from 10.2336 to 10.2336
Heightened Def Con from 10.2336 to 10.2336
Heightened Def Con from 10.2336 to 10.2336
Heightened Def Con from 10.2336 to 10.2336
Heightened Def Con from 10.2336 to 10.2336
Heightened Def Con from 10.2336 to 10.2336
Heightened Def Con from 10.2336 to 10.2336
Heightened Def Con from 10.2336 +to 10.2336
Heightened Def Con from 10.2336 to 10.2336
Heightened Def Con from 10.2336 to 10.2336
Heightened Def Con from 10.2336 to 10.2336
Heightened Def Con from 10.2336 to 10.2336
Heightened Def Con from 10.2336 to 10.2336
Heightened Def Con from 10.2336 to 10.2336
Heightened Def Con from 10.2336 to 10.2336
Heightened Def Con from 10.2336 to 10.2336
Heightened Def Con from 10.2336 to 10.2336
Heightened Def Con from 10.2336 to 10.2336
Heightened Def Con from 10.2336 to 10.2336
Heightened Def Con from 10.2336 to 10.2336
Heightened Def Con from 10.2336 to 10.2336
Heightened Def Con from 10.2336 to 10.2336
Heightened Def Con from 10.2336 to 10.2336
Heightened Def Con from 10.2336 to 10.2336
Heightened Def Con from 10.2336 to 10.2336
Heightened Def Con from 10.2336 to 10.2336
Heightened Def Con from 10.2336 to 10.2336
Heightened Def Con from 10.2336 to 10.2336
Heightened Def Con from 10.2336 to 10.2336
Heightened Def Con from 10.2336 to 10.2336
Heightened Def Con from 10.2336 to 10.2336
Heightened Def Con from 10.2336 to 10.2336
Heightened Def Con from 10.2336 to 10.2336
Heightened Def Con from 10.2336 +to 10.2336
Heightened Def Con from 10.2461 to 10.2461
Heightened Def Con from 10.2461 to 10.2461
Heightened Def Con from 10.2461 to 10.2461
Heightened Def Con from 10.2461 to 10.2461
Heightened Def Con from 10.2461 to 10.2461
Heightened Def Con from 10.2461 to 10.2461
Heightened Def Con from 10.2461 to 10.2461
Heightened Def Con from 10.2461 to 10.2461
Heightened Def Con from 10.2461 to 10.2461
Heightened Def Con from 10.2461 to 10.2461
Heightened Def Con from 10.2461 to 10.2461
Heightened Def Con from 10.2461 to 10.2461
Heightened Def Con from 10.2461 to 10.2461
Heightened Def Con from 10.2461 to 10.2461
Heightened Def Con from 10.2461 to 10.2461
Heightened Def Con from 10.2461 to 10.2461
Heightened Def Con from 10.2461 to 10.2461
Heightened Def Con from 10.2461 to 10.2461
Heightened Def Con from 10.2461 to 10.2461
Heightened Def Con from 10.2461 to 10.2461
Heightened Def Con from 10.2461 to 10.2461
Heightened Def Con from 10.2461 to 10.2461
Heightened Def Con from 10.2461 to 10.2461
Heightened Def Con from 10.2461 to 10.2461
Heightened Def Con from 10.2461 to 10.2461
Heightened Def Con from 10.2461 to 10.2461
Heightened Def Con from 10.2461 to 10.2461
Heightened Def Con from 10.2461 to 10.2461
Heightened Def Con from 10.2461 to 10.2461
Heightened Def Con from 10.2461 to 10.2461
Heightened Def Con from 10.2461 to 10.2461
Heightened Def Con from 10.2461 to 10.2461
Heightened Def Con from 10.2461 +to 10.2461
Heightened Def Con from 10.2461 to 10.2461
Heightened Def Con from 10.2461 to 10.2461
Heightened Def Con from 10.2461 to 10.2461
Heightened Def Con from 10.2461 to 10.2461
Heightened Def Con from 10.2461 to 10.2461
Heightened Def Con from 10.2461 to 10.2461
Heightened Def Con from 10.2461 to 10.2461
Heightened Def Con from 10.2461 to 10.2461
Heightened Def Con from 10.2461 to 10.2461
Heightened Def Con from 10.2461 to 10.2461
Heightened Def Con from 10.2461 to 10.2461
Heightened Def Con from 10.2461 to 10.2461
Heightened Def Con from 10.2461 to 10.2461
Heightened Def Con from 10.2461 to 10.2461
Heightened Def Con from 10.2461 to 10.2461
Heightened Def Con from 10.2461 to 10.2461
Heightened Def Con from 10.2461 to 10.2461
Heightened Def Con from 10.2461 to 10.2461
Heightened Def Con from 10.2461 to 10.2461
Heightened Def Con from 10.2461 +to 10.2461
Heightened Def Con from 10.2461 to 10.2461
Heightened Def Con from 10.2461 to 10.2461
Heightened Def Con from 10.2461 to 10.2461
Heightened Def Con from 10.2461 to 10.2461
Heightened Def Con from 10.2461 to 10.2461
Heightened Def Con from 10.2461 to 10.2461
Heightened Def Con from 10.2461 +to 10.2461
Heightened Def Con from 10.2461 to 10.2461
Heightened Def Con from 10.2461 to 10.2461
Heightened Def Con from 10.2461 to 10.2461
Heightened Def Con from 10.2461 to 10.2461
Heightened Def Con from 10.2461 to 10.2461
Heightened Def Con from 10.4703 to 10.4703
Heightened Def Con from 10.4703 to 10.4703
Heightened Def Con from 10.4705 to 10.4705
Heightened Def Con from 10.4705 to 10.4705
Heightened Def Con from 10.4705 to 10.4705
Heightened Def Con from 10.4705 to 10.4705
Heightened Def Con from 10.4705 to 10.4705
Heightened Def Con from 10.4705 to 10.4705
Heightened Def Con from 10.4705 to 10.4705
Heightened Def Con from 10.4705 to 10.4705
Heightened Def Con from 10.4705 to 10.4705
Heightened Def Con from 10.4705 to 10.4705
Heightened Def Con from 10.4705 to 10.4705
Heightened Def Con from 10.4705 to 10.4705
Heightened Def Con from 10.4705 to 10.4705
Heightened Def Con from 10.4705 to 10.4705
Heightened Def Con from 10.4705 to 10.4705
Heightened Def Con from 10.4705 to 10.4705
Heightened Def Con from 10.4705 to 10.4705
Heightened Def Con from 10.4705 to 10.4705
Heightened Def Con from 10.4705 to 10.4705
Heightened Def Con from 10.4705 to 10.4705
Heightened Def Con from 10.4705 to 10.4705
Heightened Def Con from 10.4705 +to 10.4705
Heightened Def Con from 10.4705 to 10.4705
Heightened Def Con from 10.4705 to 10.4705
Heightened Def Con from 10.4705 to 10.4705
Heightened Def Con from 10.4705 to 10.4705
Heightened Def Con from 10.4705 to 10.4705
Heightened Def Con from 10.4705 to 10.4705
Heightened Def Con from 10.4705 to 10.4705
Heightened Def Con from 10.4705 to 10.4705
Heightened Def Con from 10.4705 to 10.4705

Date: Mon Sep 21 09:07:43 2020
Total elapsed time: 67.793 seconds.

tnom = 27
temp = 27
method = modified trap
totiter = 789554
traniter = 786384
tranpoints = 112977
accept = 66384
rejected = 51818
matrix size = 126
fillins = 1286
solver = Normal
Thread vector: 53.8/24.8[3] 14.7/8.5[3] 14.7/9.9[3] 2.3/99.0[1]  2592/500
Matrix Compiler1: 217.56 KB object code size  75.5/40.6/[31.5]
Matrix Compiler2: 32.94 KB object code size  10.0/114.0/[4.2]

