Circuit: * C:\Users\dvone\Desktop\Engineering 3.2\E-Design 344\GitRepo\E344\LTSpice\Assignment 2\21785155.asc

WARNING: Less than two connections to node STIMULUS.  This node is used by V3.
WARNING: Less than two connections to node 9V.  This node is used by R_SENSE.
Direct Newton iteration for .op point succeeded.

Date: Tue Sep 22 21:57:16 2020
Total elapsed time: 1.088 seconds.

tnom = 27
temp = 27
method = modified trap
totiter = 105037
traniter = 105034
tranpoints = 52518
accept = 52518
rejected = 0
matrix size = 9
fillins = 0
solver = Normal
Matrix Compiler1: 188 bytes object code size  0.1/0.1/[0.1]
Matrix Compiler2: off  [0.1]/0.1/0.1

