Circuit: * C:\Users\dvone\Desktop\Engineering 3.2\E-Design 344\GitRepo\E344\LTSpice\Assignment 2\DAC.asc

WARNING: Node NC_01 is floating.

WARNING: Less than two connections to node NC_01.  This node is used by R1.
Direct Newton iteration for .op point succeeded.

Date: Fri Sep 18 15:07:55 2020
Total elapsed time: 0.137 seconds.

tnom = 27
temp = 27
method = modified trap
totiter = 24824
traniter = 24819
tranpoints = 8196
accept = 7059
rejected = 1137
matrix size = 12
fillins = 0
solver = Normal
Matrix Compiler1:      22 opcodes  0.3/[0.1]/0.1
Matrix Compiler2: off  [0.1]/0.2/0.1

