Circuit: * C:\Users\dvone\Desktop\Engineering 3.2\E-Design 344\GitRepo\E344\LTSpice\Assignment 2\DAC.asc

WARNING: Less than two connections to node N001.  This node is used by V3.
Direct Newton iteration for .op point succeeded.

Date: Sat Sep 19 22:15:10 2020
Total elapsed time: 0.579 seconds.

tnom = 27
temp = 27
method = modified trap
totiter = 33497
traniter = 33492
tranpoints = 11748
accept = 10356
rejected = 1392
matrix size = 8
fillins = 0
solver = Normal
Matrix Compiler1: 174 bytes object code size  0.5/0.3/[0.3]
Matrix Compiler2: 404 bytes object code size  0.3/0.4/[0.2]

