Circuit: * C:\Users\dvone\Desktop\Engineering 3.2\E-Design 344\GitRepo\E344\LTSpice\Assignment 2\dflipflop.asc

WARNING: Less than two connections to node N009.  This node is used by A1.
WARNING: Less than two connections to node N004.  This node is used by A2.
WARNING: Less than two connections to node N014.  This node is used by A3.
WARNING: Less than two connections to node N019.  This node is used by A4.
Direct Newton iteration for .op point succeeded.

Date: Wed Sep 23 15:46:25 2020
Total elapsed time: 0.845 seconds.

tnom = 27
temp = 27
method = modified trap
totiter = 108324
traniter = 108319
tranpoints = 31928
accept = 26780
rejected = 5148
matrix size = 28
fillins = 0
solver = Normal
Matrix Compiler1:      41 opcodes  0.5/[0.2]/0.2
Matrix Compiler2: 1.32 KB object code size  0.2/0.3/[0.1]

