Circuit: * C:\Users\dvone\Desktop\Engineering 3.2\E-Design 344\GitRepo\E344\LTSpice\Assignment 2\Draft1.asc

WARNING: Less than two connections to node NC_01.  This node is used by R2.
WARNING: Less than two connections to node 5V.  This node is used by V1.
Direct Newton iteration for .op point succeeded.

Date: Sun Sep 20 23:21:37 2020
Total elapsed time: 0.372 seconds.

tnom = 27
temp = 27
method = modified trap
totiter = 2120
traniter = 2098
tranpoints = 1050
accept = 1050
rejected = 0
matrix size = 28
fillins = 31
solver = Normal
Matrix Compiler1: 2.77 KB object code size  0.8/0.4/[0.3]
Matrix Compiler2: 2.72 KB object code size  0.4/0.4/[0.4]

