Circuit: * C:\Users\dvone\Desktop\Engineering 3.2\E-Design 344\GitRepo\E344\LTSpice\Assignment 2\Test.asc

Early termination of direct N-R iteration.
Direct Newton iteration failed to find .op point.  (Use ".option noopiter" to skip.)
Starting Gmin stepping
Gmin = 10
vernier = 0.5
vernier = 0.25
vernier = 0.125
Gmin = 6.68666
vernier = 0.0625
vernier = 0.03125
vernier = 0.015625
vernier = 0.0078125
Gmin = 6.72377
vernier = 0.00390625
vernier = 0.00195313
vernier = 0.000976563
Gmin = 6.71066
vernier = 0.000488281
Gmin = 0
Gmin stepping succeeded in finding the operating point.


Date: Wed Sep 23 20:27:13 2020
Total elapsed time: 0.304 seconds.

tnom = 27
temp = 27
method = modified trap
totiter = 3819
traniter = 2384
tranpoints = 1193
accept = 1111
rejected = 82
matrix size = 55
fillins = 208
solver = Normal
Matrix Compiler1: 20.04 KB object code size  4.7/2.7/[1.5]
Matrix Compiler2: 8.55 KB object code size  1.7/1.5/[0.8]

