Circuit: * C:\Users\dvone\Desktop\Engineering 3.2\E-Design 344\GitRepo\E344\LTSpice\Assignment 2\von_Eschwege_21785155_A2.asc

Early termination of direct N-R iteration.
Direct Newton iteration failed to find .op point.  (Use ".option noopiter" to skip.)
Starting Gmin stepping
Gmin = 10
vernier = 0.5
vernier = 0.25
vernier = 0.125
Gmin = 5.5165
vernier = 0.0625
vernier = 0.03125
vernier = 0.015625
vernier = 0.0078125
Gmin = 5.49501
vernier = 0.00390625
vernier = 0.00195313
vernier = 0.000976563
vernier = 0.000488281
Gmin = 5.50104
Gmin = 0
Gmin stepping failed

Starting source stepping with srcstepmethod=0
Source Step = 3.0303%
Source Step = 33.3333%
Source Step = 42.4302%
Starting source stepping with srcstepmethod=1
Source Step = 3.0303%
Source Step = 9.89583%
Source Step = 10.0379%
Source stepping failed

Pseudo Transient failed in finding the operating point at 10.5064 µs.
Trouble finding operating point....skipping operating point for Transient analysis.
Ignoring empty pin current: Ix(u3:1)
Ignoring empty pin current: Ix(u3:2)

Date: Thu Sep 24 01:00:18 2020
Total elapsed time: 141.240 seconds.

tnom = 27
temp = 27
method = modified trap
totiter = 1588296
traniter = 0
tranpoints = 1
accept = 1
rejected = 48122
matrix size = 131
fillins = 1487
solver = Normal
Thread vector: 38.3/18.7[3] 18.4/9.3[3] 13.1/9.1[3] 2.1/2.8[1]  2592/500
Matrix Compiler1: 281.52 KB object code size  71.8/42.5/[27.4]
Matrix Compiler2: 36.84 KB object code size  9.2/8.3/[2.7]

