Circuit: * C:\Users\dvone\Desktop\Engineering 3.2\E-Design 344\GitRepo\E344\LTSpice\Assignment 2\von_Eschwege_21785155_A2.asc

Per .tran options, skipping operating point for transient analysis.
Ignoring empty pin current: Ix(u3:1)
Ignoring empty pin current: Ix(u3:2)
Changing Tseed to 1e-008
Changing Tseed to 1e-010
Changing Tseed to 1e-007
Changing Tseed to 1e-011
Changing Tseed to 1e-006
Changing Tseed to 1e-012
Changing Tseed to 1e-005
Changing Tseed to 1e-013
Changing Tseed to 0.0001
Changing Tseed to 1e-014
Changing Tseed to 0.001
Changing Tseed to 1e-015
Heightened Def Con from 0 Changing Tseed to 1e-009
Changing Tseed to 1e-011
Changing Tseed to 1e-008
Changing Tseed to 1e-012
Changing Tseed to 1e-007
Changing Tseed to 1e-013
Changing Tseed to 1e-006
Changing Tseed to 1e-014
Changing Tseed to 1e-005
Changing Tseed to 1e-015
Changing Tseed to 0.0001
Changing Tseed to 1e-016
+Changing Tseed to 1e-009
Changing Tseed to 1e-011
Changing Tseed to 1e-008
Changing Tseed to 1e-012
Changing Tseed to 1e-007
Changing Tseed to 1e-013
Changing Tseed to 1e-006
Changing Tseed to 1e-014
Changing Tseed to 1e-005
Changing Tseed to 1e-015
Changing Tseed to 0.0001
Changing Tseed to 1e-016
+Changing Tseed to 1e-009
Changing Tseed to 1e-011
Changing Tseed to 1e-008
Changing Tseed to 1e-012
Changing Tseed to 1e-007
Changing Tseed to 1e-013
Changing Tseed to 1e-006
Changing Tseed to 1e-014
Changing Tseed to 1e-005
Changing Tseed to 1e-015
Changing Tseed to 0.0001
Changing Tseed to 1e-016
+Changing Tseed to 1e-009
Changing Tseed to 1e-011
Changing Tseed to 1e-008
Changing Tseed to 1e-012
Changing Tseed to 1e-007
Changing Tseed to 1e-013
Changing Tseed to 1e-006
Changing Tseed to 1e-014
Changing Tseed to 1e-005
Changing Tseed to 1e-015
Changing Tseed to 0.0001
Changing Tseed to 1e-016
+Changing Tseed to 1e-009
Changing Tseed to 1e-011
Changing Tseed to 1e-008
Changing Tseed to 1e-012
Changing Tseed to 1e-007
Changing Tseed to 1e-013
Changing Tseed to 1e-006
Changing Tseed to 1e-014
Changing Tseed to 1e-005
Changing Tseed to 1e-015
Changing Tseed to 0.0001
Changing Tseed to 1e-016
+Changing Tseed to 1e-009
Changing Tseed to 1e-011
Changing Tseed to 1e-008
Changing Tseed to 1e-012
Changing Tseed to 1e-007
Changing Tseed to 1e-013
Changing Tseed to 1e-006
Changing Tseed to 1e-014
Changing Tseed to 1e-005
Changing Tseed to 1e-015
Changing Tseed to 0.0001
Changing Tseed to 1e-016
+Changing Tseed to 1e-009
Changing Tseed to 1e-011
Changing Tseed to 1e-008
Changing Tseed to 1e-012
Changing Tseed to 1e-007
Changing Tseed to 1e-013
Changing Tseed to 1e-006
Changing Tseed to 1e-014
Changing Tseed to 1e-005
Changing Tseed to 1e-015
Changing Tseed to 0.0001
Changing Tseed to 1e-016
+Changing Tseed to 1e-009
Changing Tseed to 1e-011
Changing Tseed to 1e-008
Changing Tseed to 1e-012
Changing Tseed to 1e-007
Changing Tseed to 1e-013
Changing Tseed to 1e-006
Changing Tseed to 1e-014
Changing Tseed to 1e-005
Changing Tseed to 1e-015
Changing Tseed to 0.0001
Changing Tseed to 1e-016
+Changing Tseed to 1e-009
Changing Tseed to 1e-011
Changing Tseed to 1e-008
Changing Tseed to 1e-012
Changing Tseed to 1e-007
Changing Tseed to 1e-013
Changing Tseed to 1e-006
Changing Tseed to 1e-014
Changing Tseed to 1e-005
Changing Tseed to 1e-015
Changing Tseed to 0.0001
Changing Tseed to 1e-016
+Changing Tseed to 1e-009
Changing Tseed to 1e-011
Changing Tseed to 1e-008
Changing Tseed to 1e-012
Changing Tseed to 1e-007
Changing Tseed to 1e-013
Changing Tseed to 1e-006
Changing Tseed to 1e-014
Changing Tseed to 1e-005
Changing Tseed to 1e-015
Changing Tseed to 0.0001
Changing Tseed to 1e-016
+Changing Tseed to 1e-009
Changing Tseed to 1e-011
Changing Tseed to 1e-008
Changing Tseed to 1e-012
Changing Tseed to 1e-007
Changing Tseed to 1e-013
Changing Tseed to 1e-006
Changing Tseed to 1e-014
Changing Tseed to 1e-005
Changing Tseed to 1e-015
Changing Tseed to 0.0001
Changing Tseed to 1e-016
+Changing Tseed to 1e-009
Changing Tseed to 1e-011
Changing Tseed to 1e-008
Changing Tseed to 1e-012
Changing Tseed to 1e-007
Changing Tseed to 1e-013
Changing Tseed to 1e-006
Changing Tseed to 1e-014
Changing Tseed to 1e-005
Changing Tseed to 1e-015
Changing Tseed to 0.0001
Changing Tseed to 1e-016
+Changing Tseed to 1e-009
Changing Tseed to 1e-011
Changing Tseed to 1e-008
Changing Tseed to 1e-012
Changing Tseed to 1e-007
Changing Tseed to 1e-013
Changing Tseed to 1e-006
Changing Tseed to 1e-014
Changing Tseed to 1e-005
Changing Tseed to 1e-015
Changing Tseed to 0.0001
Changing Tseed to 1e-016
+Changing Tseed to 1e-009
Changing Tseed to 1e-011
Changing Tseed to 1e-008
Changing Tseed to 1e-012
Changing Tseed to 1e-007
Changing Tseed to 1e-013
Changing Tseed to 1e-006
Changing Tseed to 1e-014
Changing Tseed to 1e-005
Changing Tseed to 1e-015
Changing Tseed to 0.0001
Changing Tseed to 1e-016
+Changing Tseed to 1e-009
Changing Tseed to 1e-011
Changing Tseed to 1e-008
Changing Tseed to 1e-012
Changing Tseed to 1e-007
Changing Tseed to 1e-013
Changing Tseed to 1e-006
Changing Tseed to 1e-014
Changing Tseed to 1e-005
Changing Tseed to 1e-015
Changing Tseed to 0.0001
Changing Tseed to 1e-016
+Changing Tseed to 1e-009
Changing Tseed to 1e-011
Changing Tseed to 1e-008
Changing Tseed to 1e-012
Changing Tseed to 1e-007
Changing Tseed to 1e-013
Changing Tseed to 1e-006
Changing Tseed to 1e-014
Changing Tseed to 1e-005
Changing Tseed to 1e-015
Changing Tseed to 0.0001
Changing Tseed to 1e-016
+Changing Tseed to 1e-009
Changing Tseed to 1e-011
Changing Tseed to 1e-008
Changing Tseed to 1e-012
Changing Tseed to 1e-007
Changing Tseed to 1e-013
Changing Tseed to 1e-006
Changing Tseed to 1e-014
Changing Tseed to 1e-005
Changing Tseed to 1e-015
Changing Tseed to 0.0001
Changing Tseed to 1e-016
+Changing Tseed to 1e-009
Changing Tseed to 1e-011
Changing Tseed to 1e-008
Changing Tseed to 1e-012
Changing Tseed to 1e-007
Changing Tseed to 1e-013
Changing Tseed to 1e-006
Changing Tseed to 1e-014
Changing Tseed to 1e-005
Changing Tseed to 1e-015
Changing Tseed to 0.0001
Changing Tseed to 1e-016
+Changing Tseed to 1e-009
Changing Tseed to 1e-011
Changing Tseed to 1e-008
Changing Tseed to 1e-012
Changing Tseed to 1e-007
Changing Tseed to 1e-013
Changing Tseed to 1e-006
Changing Tseed to 1e-014
Changing Tseed to 1e-005
Changing Tseed to 1e-015
Changing Tseed to 0.0001
Changing Tseed to 1e-016
+Changing Tseed to 1e-009
Changing Tseed to 1e-011
Changing Tseed to 1e-008
Changing Tseed to 1e-012
Changing Tseed to 1e-007
Changing Tseed to 1e-013
Changing Tseed to 1e-006
Changing Tseed to 1e-014
Changing Tseed to 1e-005
Changing Tseed to 1e-015
Changing Tseed to 0.0001
Changing Tseed to 1e-016
+Changing Tseed to 1e-009
Changing Tseed to 1e-011
Changing Tseed to 1e-008
Changing Tseed to 1e-012
Changing Tseed to 1e-007
Changing Tseed to 1e-013
Changing Tseed to 1e-006
Changing Tseed to 1e-014
Changing Tseed to 1e-005
Changing Tseed to 1e-015
Changing Tseed to 0.0001
Changing Tseed to 1e-016
+Changing Tseed to 1e-009
Changing Tseed to 1e-011
Changing Tseed to 1e-008
Changing Tseed to 1e-012
Changing Tseed to 1e-007
Changing Tseed to 1e-013
Changing Tseed to 1e-006
Changing Tseed to 1e-014
Changing Tseed to 1e-005
Changing Tseed to 1e-015
Changing Tseed to 0.0001
Changing Tseed to 1e-016
+Changing Tseed to 1e-009
Changing Tseed to 1e-011
Changing Tseed to 1e-008
Changing Tseed to 1e-012
Changing Tseed to 1e-007
Changing Tseed to 1e-013
Changing Tseed to 1e-006
Changing Tseed to 1e-014
Changing Tseed to 1e-005
Changing Tseed to 1e-015
Changing Tseed to 0.0001
Changing Tseed to 1e-016
+Changing Tseed to 1e-009
Changing Tseed to 1e-011
Changing Tseed to 1e-008
Changing Tseed to 1e-012
Changing Tseed to 1e-007
Changing Tseed to 1e-013
Changing Tseed to 1e-006
Changing Tseed to 1e-014
Changing Tseed to 1e-005
Changing Tseed to 1e-015
Changing Tseed to 0.0001
Changing Tseed to 1e-016
+Changing Tseed to 1e-009
Changing Tseed to 1e-011
Changing Tseed to 1e-008
Changing Tseed to 1e-012
Changing Tseed to 1e-007
Changing Tseed to 1e-013
Changing Tseed to 1e-006
Changing Tseed to 1e-014
Changing Tseed to 1e-005
Changing Tseed to 1e-015
Changing Tseed to 0.0001
Changing Tseed to 1e-016
+Changing Tseed to 1e-009
Changing Tseed to 1e-011
Changing Tseed to 1e-008
Changing Tseed to 1e-012
Changing Tseed to 1e-007
Changing Tseed to 1e-013
Changing Tseed to 1e-006
Changing Tseed to 1e-014
Changing Tseed to 1e-005
Changing Tseed to 1e-015
Changing Tseed to 0.0001
Changing Tseed to 1e-016
+Changing Tseed to 1e-009
Changing Tseed to 1e-011
Changing Tseed to 1e-008
Changing Tseed to 1e-012
Changing Tseed to 1e-007
Changing Tseed to 1e-013
Changing Tseed to 1e-006
Changing Tseed to 1e-014
Changing Tseed to 1e-005
Changing Tseed to 1e-015
Changing Tseed to 0.0001
Changing Tseed to 1e-016
+Changing Tseed to 1e-009
Changing Tseed to 1e-011
Changing Tseed to 1e-008
Changing Tseed to 1e-012
Changing Tseed to 1e-007
Changing Tseed to 1e-013
Changing Tseed to 1e-006
Changing Tseed to 1e-014
Changing Tseed to 1e-005
Changing Tseed to 1e-015
Changing Tseed to 0.0001
Changing Tseed to 1e-016
+Changing Tseed to 1e-009
Changing Tseed to 1e-011
Changing Tseed to 1e-008
Changing Tseed to 1e-012
Changing Tseed to 1e-007
Changing Tseed to 1e-013
Changing Tseed to 1e-006
Changing Tseed to 1e-014
Changing Tseed to 1e-005
Changing Tseed to 1e-015
Changing Tseed to 0.0001
Changing Tseed to 1e-016
+Changing Tseed to 1e-009
Changing Tseed to 1e-011
Changing Tseed to 1e-008
Changing Tseed to 1e-012
Changing Tseed to 1e-007
Changing Tseed to 1e-013
Changing Tseed to 1e-006
Changing Tseed to 1e-014
Changing Tseed to 1e-005
Changing Tseed to 1e-015
Changing Tseed to 0.0001
Changing Tseed to 1e-016
+Changing Tseed to 1e-009
Changing Tseed to 1e-011
Changing Tseed to 1e-008
Changing Tseed to 1e-012
Changing Tseed to 1e-007
Changing Tseed to 1e-013
Changing Tseed to 1e-006
Changing Tseed to 1e-014
Changing Tseed to 1e-005
Changing Tseed to 1e-015
Changing Tseed to 0.0001
Changing Tseed to 1e-016
+Changing Tseed to 1e-009
Changing Tseed to 1e-011
Changing Tseed to 1e-008
Changing Tseed to 1e-012
Changing Tseed to 1e-007
Changing Tseed to 1e-013
Changing Tseed to 1e-006
Changing Tseed to 1e-014
Changing Tseed to 1e-005
Changing Tseed to 1e-015
Changing Tseed to 0.0001
Changing Tseed to 1e-016
+Changing Tseed to 1e-009
Changing Tseed to 1e-011
Changing Tseed to 1e-008
Changing Tseed to 1e-012
Changing Tseed to 1e-007
Changing Tseed to 1e-013
Changing Tseed to 1e-006
Changing Tseed to 1e-014
Changing Tseed to 1e-005
Changing Tseed to 1e-015
Changing Tseed to 0.0001
Changing Tseed to 1e-016
+Changing Tseed to 1e-009
Changing Tseed to 1e-011
Changing Tseed to 1e-008
Changing Tseed to 1e-012
Changing Tseed to 1e-007
Changing Tseed to 1e-013
Changing Tseed to 1e-006
Changing Tseed to 1e-014
Changing Tseed to 1e-005
Changing Tseed to 1e-015
Changing Tseed to 0.0001
Changing Tseed to 1e-016
+Changing Tseed to 1e-009
Changing Tseed to 1e-011
Changing Tseed to 1e-008
Changing Tseed to 1e-012
Changing Tseed to 1e-007
Changing Tseed to 1e-013
Changing Tseed to 1e-006
Changing Tseed to 1e-014
Changing Tseed to 1e-005
Changing Tseed to 1e-015
Changing Tseed to 0.0001
Changing Tseed to 1e-016
+Changing Tseed to 1e-009
Changing Tseed to 1e-011
Changing Tseed to 1e-008
Changing Tseed to 1e-012
Changing Tseed to 1e-007
Changing Tseed to 1e-013
Changing Tseed to 1e-006
Changing Tseed to 1e-014
Changing Tseed to 1e-005
Changing Tseed to 1e-015
Changing Tseed to 0.0001
Changing Tseed to 1e-016
+Changing Tseed to 1e-009
Changing Tseed to 1e-011
Changing Tseed to 1e-008
Changing Tseed to 1e-012
Changing Tseed to 1e-007
Changing Tseed to 1e-013
Changing Tseed to 1e-006
Changing Tseed to 1e-014
Changing Tseed to 1e-005
Changing Tseed to 1e-015
Changing Tseed to 0.0001
Changing Tseed to 1e-016
+Changing Tseed to 1e-009
Changing Tseed to 1e-011
Changing Tseed to 1e-008
Changing Tseed to 1e-012
Changing Tseed to 1e-007
Changing Tseed to 1e-013
Changing Tseed to 1e-006
Changing Tseed to 1e-014
Changing Tseed to 1e-005
Changing Tseed to 1e-015
Changing Tseed to 0.0001
Changing Tseed to 1e-016
+Changing Tseed to 1e-009
Changing Tseed to 1e-011
Changing Tseed to 1e-008
Changing Tseed to 1e-012
Changing Tseed to 1e-007
Changing Tseed to 1e-013
Changing Tseed to 1e-006
Changing Tseed to 1e-014
Changing Tseed to 1e-005
Changing Tseed to 1e-015
Changing Tseed to 0.0001
Changing Tseed to 1e-016
+Changing Tseed to 1e-009
Changing Tseed to 1e-011
Changing Tseed to 1e-008
Changing Tseed to 1e-012
Changing Tseed to 1e-007
Changing Tseed to 1e-013
Changing Tseed to 1e-006
Changing Tseed to 1e-014
Changing Tseed to 1e-005
Changing Tseed to 1e-015
Changing Tseed to 0.0001
Changing Tseed to 1e-016
+Changing Tseed to 1e-009
Changing Tseed to 1e-011
Changing Tseed to 1e-008
Changing Tseed to 1e-012
Changing Tseed to 1e-007
Changing Tseed to 1e-013
Changing Tseed to 1e-006
Changing Tseed to 1e-014
Changing Tseed to 1e-005
Changing Tseed to 1e-015
Changing Tseed to 0.0001
Changing Tseed to 1e-016
to 7.25e-018
Heightened Def Con from 7.25e-018 +++++++++++++++++++++++++to 1.225e-017
Heightened Def Con from 1.225e-017 +++++++++++++++++++to 2.81512e-017
Heightened Def Con from 2.81512e-017 ++++++++++++++++++to 2.91512e-017
Heightened Def Con from 2.91512e-017 ++++++++++++++++++++++++++to 5.87945e-016
Heightened Def Con from 5.87945e-016 ++++++++++++to 5.88945e-016
Heightened Def Con from 5.88945e-016 +++++++++++++++++++to 5.89945e-016
Heightened Def Con from 5.89945e-016 +++++++++++++++++++++++to 5.90945e-016
Heightened Def Con from 5.90945e-016 +++++++++++++++++++++++to 5.91945e-016
Heightened Def Con from 5.91945e-016 ++++++++++++++++++++to 5.99395e-016
Heightened Def Con from 5.99395e-016 +++++++++++++++++++++++to 6.6e-016
Heightened Def Con from 6.6e-016 ++++++++++++++++++++++++to 6.67451e-016
Heightened Def Con from 6.67451e-016 +++++++++++++++++++++++++++to 1.21134e-015
Heightened Def Con from 1.21134e-015 ++++++++++++++++++++++++to 9.02055e-015
Heightened Def Con from 9.02055e-015 ++++++++++++++++++++to 9.02155e-015
Heightened Def Con from 9.02155e-015 +++++++++++++++++++++to 9.02255e-015
Heightened Def Con from 9.02255e-015 +++++++++++++++++++to 9.08216e-015
Heightened Def Con from 9.08216e-015 ++++++++++++++++++to 9.14176e-015
Heightened Def Con from 9.14176e-015 ++++++++++++++++to 9.14921e-015
Heightened Def Con from 9.14921e-015 ++++++++++++++++++++++to 9.68565e-015
Heightened Def Con from 9.68565e-015 +++++++++++++++++++++++to 4.02628e-014
Heightened Def Con from 4.02628e-014 +++++++++++++++++++to 4.07397e-014
Heightened Def Con from 4.07397e-014 +++++++++++++++++++++to 3.15398e-013
Heightened Def Con from 3.15398e-013 ++++++++++++++++++++to 3.45975e-013
Heightened Def Con from 3.45975e-013 +++++++++++++++to 3.46035e-013
Heightened Def Con from 3.46035e-013 ++++++++++++++++++to 3.46042e-013
Heightened Def Con from 3.46042e-013 ++++++++++++++++++++++to 3.49857e-013
Heightened Def Con from 3.49857e-013 +++++++++++++++++to 3.49858e-013
Heightened Def Con from 3.49858e-013 +++++++++++++++++++to 3.49859e-013
Heightened Def Con from 3.49859e-013 +++++++++++++++++to 3.49866e-013
Heightened Def Con from 3.49866e-013 +++to 3.49867e-013
Heightened Def Con from 3.49867e-013 ++++++++++++++++++++++to 3.80862e-013
Heightened Def Con from 3.80862e-013 ++++++++++++++++++to 3.80863e-013
Heightened Def Con from 3.80863e-013 +++++++++++++++++++to 3.80864e-013
Heightened Def Con from 3.80864e-013 ++++++++++++++++++to 3.81341e-013
Heightened Def Con from 3.81341e-013 +++++++++++++++++++to 3.85155e-013
Heightened Def Con from 3.85155e-013 +++to 3.85156e-013
Heightened Def Con from 3.85156e-013 +++++++++++++++++to 3.85157e-013
Heightened Def Con from 3.85157e-013 ++++++++++++++++++++to 3.85158e-013
Heightened Def Con from 3.85158e-013 ++++++++++++to 3.88973e-013
Heightened Def Con from 3.88973e-013 ++++++++++++++++++++to 3.92788e-013
Heightened Def Con from 3.92788e-013 +++++++++++++++++++to 3.93264e-013
Heightened Def Con from 3.93264e-013 ++++++++++++++++++to 3.93272e-013
Heightened Def Con from 3.93272e-013 ++++++++++++++++++to 3.97087e-013
Heightened Def Con from 3.97087e-013 +++++++++++++++++++++to 4.00901e-013
Heightened Def Con from 4.00901e-013 ++++++++++++++++++++++to 4.61944e-013
Heightened Def Con from 4.61944e-013 ++++++++++++++++to 4.65759e-013
Heightened Def Con from 4.65759e-013 ++++++++++++++++++++to 4.69573e-013
Heightened Def Con from 4.69573e-013 ++++++++++++++++++to 5.00098e-013
Heightened Def Con from 5.00098e-013 ++++++++++++++++++++++to 7.44299e-013
Heightened Def Con from 7.44299e-013 +++++++++++++++++to 7.443e-013
Heightened Def Con from 7.443e-013 ++++++++++++++++to 7.48114e-013
Heightened Def Con from 7.48114e-013 ++++++++++++++++to 7.48174e-013
Heightened Def Con from 7.48174e-013 ++++++++++++++++++++++to 8.13024e-013
Heightened Def Con from 8.13024e-013 ++++++++++++++++++++to 8.16838e-013
Heightened Def Con from 8.16838e-013 ++++++++++++++++++to 8.16839e-013
Heightened Def Con from 8.16839e-013 ++++++++++++++++++++to 8.16847e-013
Heightened Def Con from 8.16847e-013 +++++++++++++++++++to 8.16854e-013
Heightened Def Con from 8.16854e-013 ++++++++++++++++++++++to 8.51187e-013
Heightened Def Con from 8.51187e-013 ++++++++++++++++++++to 8.51188e-013
Heightened Def Con from 8.5119e-013 ++++++++++++++++++++++++to 8.51249e-013
Heightened Def Con from 8.51249e-013 +++++++++++++++++++to 8.51309e-013
Heightened Def Con from 8.51309e-013 ++++++++++++++++++++++to 8.51316e-013
Heightened Def Con from 8.51316e-013 +++++++++++++++++++to 8.51324e-013
Heightened Def Con from 8.51324e-013 +++++++++++++++++++++to 1.12598e-012
Heightened Def Con from 1.12598e-012 +++++++++++++++++++++to 1.12604e-012
Heightened Def Con from 1.12604e-012 ++++++++++++++++++to 1.12986e-012
Heightened Def Con from 1.12986e-012 ++++++++++++++++to 1.12986e-012
Heightened Def Con from 1.12986e-012 ++++++++++to 1.12987e-012
Heightened Def Con from 1.12987e-012 +++++++++++++++to 1.13368e-012
Heightened Def Con from 1.13368e-012 ++++++++++++++++++to 1.16801e-012
Heightened Def Con from 1.16801e-012 +++++++++++++++++to 1.17183e-012
Heightened Def Con from 1.17183e-012 +++++to 1.17183e-012
Heightened Def Con from 1.17183e-012 ++++++++++++++++++to 1.17231e-012
Heightened Def Con from 1.17231e-012 +++++++++++++++++to 1.17236e-012
Heightened Def Con from 1.17236e-012 +++++++++++++++++++to 1.68012e-011
Heightened Def Con from 1.68012e-011 ++++++++++++++++++++to 1.68012e-011
Heightened Def Con from 1.68012e-011 +to 1.68012e-011
Heightened Def Con from 1.68012e-011 +++++++++++++++++++to 3.24567e-011
Heightened Def Con from 3.24567e-011 ++++++++++++++++++to 3.27009e-011
Heightened Def Con from 3.27009e-011 +++++++++++++++++++to 5.0279e-011
Heightened Def Con from 5.0279e-011 ++++to 5.0279e-011
Heightened Def Con from 5.0279e-011 +++++++++++++++to 5.02795e-011
Heightened Def Con from 5.02795e-011 +++++++++++++++++to 1.7528e-010
Heightened Def Con from 1.7528e-010 ++++++++++++++++to 1.7531e-010
Heightened Def Con from 1.7531e-010 to 1.75314e-010
Heightened Def Con from 1.75314e-010 +++++++++++++++++to 1.75558e-010
Heightened Def Con from 1.75558e-010 ++++to 1.75558e-010
Heightened Def Con from 1.75558e-010 ++to 1.75558e-010
Heightened Def Con from 1.75558e-010 +++to 1.77512e-010
Heightened Def Con from 1.77512e-010 ++++++++++++++++to 1.77512e-010
Heightened Def Con from 1.77512e-010 +to 1.77512e-010
Heightened Def Con from 1.77512e-010 ++++to 1.77512e-010
Heightened Def Con from 1.77512e-010 ++to 1.77512e-010
Heightened Def Con from 1.77512e-010 to 1.77513e-010
Heightened Def Con from 1.77513e-010 ++++++++++++to 1.77513e-010
Heightened Def Con from 1.77513e-010 ++++++++++to 1.77516e-010
Heightened Def Con from 1.77516e-010 ++++++++++to 1.7752e-010
Heightened Def Con from 1.7752e-010 +++++to 1.7752e-010
Heightened Def Con from 1.7752e-010 ++++++++++++++to 1.7752e-010
Heightened Def Con from 1.7752e-010 +++++++++to 1.7752e-010
Heightened Def Con from 1.7752e-010 +++++++++++++to 1.19315e-009
Heightened Def Con from 1.19315e-009 +++++++++to 1.19315e-009
Heightened Def Con from 1.19315e-009 ++to 1.19315e-009
Heightened Def Con from 1.19315e-009 +++++to 1.19315e-009
Heightened Def Con from 1.19315e-009 +++++++++++++to 1.19315e-009
Heightened Def Con from 1.19315e-009 ++++++++++++to 1.19318e-009
Heightened Def Con from 1.19318e-009 ++++++++++++to 1.19318e-009
Heightened Def Con from 1.19318e-009 +to 1.19318e-009
Heightened Def Con from 1.19318e-009 +++++++++++++++++++to 1.19342e-009
Heightened Def Con from 1.19342e-009 to 1.19342e-009
Heightened Def Con from 1.19342e-009 +++++++++++++to 1.19345e-009
Heightened Def Con from 1.19345e-009 ++++to 1.19348e-009
Heightened Def Con from 1.19348e-009 +++++++to 1.19348e-009
Heightened Def Con from 1.19348e-009 +++++++++++++to 1.19349e-009
Heightened Def Con from 1.19349e-009 ++++to 1.19349e-009
Heightened Def Con from 1.19349e-009 +to 1.32044e-009
Heightened Def Con from 1.32044e-009 ++to 1.32044e-009
Heightened Def Con from 1.32044e-009 +to 1.32047e-009
Heightened Def Con from 1.32047e-009 +++to 1.32047e-009
Heightened Def Con from 1.32047e-009 ++++to 1.44571e-009
Heightened Def Con from 1.44571e-009 ++++to 1.44571e-009
Heightened Def Con from 1.44571e-009 ++to 1.44767e-009
Heightened Def Con from 1.44767e-009 to 2.46329e-009
Heightened Def Con from 2.46329e-009 +to 2.46329e-009
Heightened Def Con from 2.46329e-009 ++to 2.46329e-009
Heightened Def Con from 2.46329e-009 to 2.46329e-009
Heightened Def Con from 2.46329e-009 to 3.47892e-009
Heightened Def Con from 3.47892e-009 to 3.47892e-009
Heightened Def Con from 3.47892e-009 to 3.47895e-009
Heightened Def Con from 3.47895e-009 +++to 3.49458e-009
Heightened Def Con from 3.49458e-009 to 3.49458e-009
Heightened Def Con from 3.49458e-009 to 3.49653e-009
Heightened Def Con from 3.49653e-009 ++to 3.51219e-009
Heightened Def Con from 3.52791e-009 +to 3.52791e-009
Heightened Def Con from 3.52791e-009 to 3.52816e-009
Heightened Def Con from 3.52816e-009 to 3.53011e-009
Heightened Def Con from 3.53011e-009 to 3.53035e-009
Heightened Def Con from 3.53041e-009 +to 4.53042e-009
Heightened Def Con from 4.53042e-009 to 6.53045e-009
Heightened Def Con from 6.53053e-009 to 7.53248e-009
Heightened Def Con from 7.53297e-009 to 7.79859e-009
Heightened Def Con from 7.80031e-009 to 7.80031e-009
Heightened Def Con from 7.80031e-009 to 7.80055e-009
Heightened Def Con from 7.80056e-009 to 7.92751e-009
Heightened Def Con from 7.9285e-009 to 9.0535e-009
Heightened Def Con from 1.13458e-008 to 1.43458e-008
Heightened Def Con from 2.06145 to 2.06145
Heightened Def Con from 2.06171 to 2.06171
Heightened Def Con from 3.04969 to 3.04969
Heightened Def Con from 4.02898 to 4.02898
Heightened Def Con from 4.02898 to 4.02898
Heightened Def Con from 4.30926 +++++++++++to 4.30926
Heightened Def Con from 4.30926 to 4.30926
Heightened Def Con from 4.30926 to 4.30926

Date: Sat Oct 03 16:31:47 2020
Total elapsed time: 24.146 seconds.

tnom = 27
temp = 27
method = modified trap
totiter = 358056
traniter = 358056
tranpoints = 75432
accept = 54521
rejected = 22409
matrix size = 131
fillins = 543
solver = Normal
Thread vector: 47.3/29.3[3] 16.1/9.6[3] 15.2/11.5[3] 1.6/2.0[1]  2592/500
Matrix Compiler1: 77.42 KB object code size  14.6/8.5/[3.5]
Matrix Compiler2: 20.47 KB object code size  4.9/7.0/[1.9]

