Circuit: * C:\Users\dvone\Desktop\Engineering 3.2\E-Design 344\GitRepo\E344\LTSpice\Assignment 2\von_Eschwege_21785155_A2 - Copy.asc

Per .tran options, skipping operating point for transient analysis.
Ignoring empty pin current: Ix(u3:1)
Ignoring empty pin current: Ix(u3:2)
Changing Tseed to 1e-008
Changing Tseed to 1e-010
Changing Tseed to 1e-007
Changing Tseed to 1e-011
Changing Tseed to 1e-006
Changing Tseed to 1e-012
Changing Tseed to 1e-005
Changing Tseed to 1e-013
Changing Tseed to 0.0001
Changing Tseed to 1e-014
Changing Tseed to 0.001
Changing Tseed to 1e-015
Heightened Def Con from 0 Changing Tseed to 1e-009
Changing Tseed to 1e-011
Changing Tseed to 1e-008
Changing Tseed to 1e-012
Changing Tseed to 1e-007
Changing Tseed to 1e-013
Changing Tseed to 1e-006
Changing Tseed to 1e-014
Changing Tseed to 1e-005
Changing Tseed to 1e-015
Changing Tseed to 0.0001
Changing Tseed to 1e-016
+Changing Tseed to 1e-009
Changing Tseed to 1e-011
Changing Tseed to 1e-008
Changing Tseed to 1e-012
Changing Tseed to 1e-007
Changing Tseed to 1e-013
Changing Tseed to 1e-006
Changing Tseed to 1e-014
Changing Tseed to 1e-005
Changing Tseed to 1e-015
Changing Tseed to 0.0001
Changing Tseed to 1e-016
+Changing Tseed to 1e-009
Changing Tseed to 1e-011
Changing Tseed to 1e-008
Changing Tseed to 1e-012
Changing Tseed to 1e-007
Changing Tseed to 1e-013
Changing Tseed to 1e-006
Changing Tseed to 1e-014
Changing Tseed to 1e-005
Changing Tseed to 1e-015
Changing Tseed to 0.0001
Changing Tseed to 1e-016
+Changing Tseed to 1e-009
Changing Tseed to 1e-011
Changing Tseed to 1e-008
Changing Tseed to 1e-012
Changing Tseed to 1e-007
Changing Tseed to 1e-013
Changing Tseed to 1e-006
Changing Tseed to 1e-014
Changing Tseed to 1e-005
Changing Tseed to 1e-015
Changing Tseed to 0.0001
Changing Tseed to 1e-016
+Changing Tseed to 1e-009
Changing Tseed to 1e-011
Changing Tseed to 1e-008
Changing Tseed to 1e-012
Changing Tseed to 1e-007
Changing Tseed to 1e-013
Changing Tseed to 1e-006
Changing Tseed to 1e-014
Changing Tseed to 1e-005
Changing Tseed to 1e-015
Changing Tseed to 0.0001
Changing Tseed to 1e-016
+Changing Tseed to 1e-009
Changing Tseed to 1e-011
Changing Tseed to 1e-008
Changing Tseed to 1e-012
Changing Tseed to 1e-007
Changing Tseed to 1e-013
Changing Tseed to 1e-006
Changing Tseed to 1e-014
Changing Tseed to 1e-005
Changing Tseed to 1e-015
Changing Tseed to 0.0001
Changing Tseed to 1e-016
+Changing Tseed to 1e-009
Changing Tseed to 1e-011
Changing Tseed to 1e-008
Changing Tseed to 1e-012
Changing Tseed to 1e-007
Changing Tseed to 1e-013
Changing Tseed to 1e-006
Changing Tseed to 1e-014
Changing Tseed to 1e-005
Changing Tseed to 1e-015
Changing Tseed to 0.0001
Changing Tseed to 1e-016
+Changing Tseed to 1e-009
Changing Tseed to 1e-011
Changing Tseed to 1e-008
Changing Tseed to 1e-012
Changing Tseed to 1e-007
Changing Tseed to 1e-013
Changing Tseed to 1e-006
Changing Tseed to 1e-014
Changing Tseed to 1e-005
Changing Tseed to 1e-015
Changing Tseed to 0.0001
Changing Tseed to 1e-016
+Changing Tseed to 1e-009
Changing Tseed to 1e-011
Changing Tseed to 1e-008
Changing Tseed to 1e-012
Changing Tseed to 1e-007
Changing Tseed to 1e-013
Changing Tseed to 1e-006
Changing Tseed to 1e-014
Changing Tseed to 1e-005
Changing Tseed to 1e-015
Changing Tseed to 0.0001
Changing Tseed to 1e-016
+Changing Tseed to 1e-009
Changing Tseed to 1e-011
Changing Tseed to 1e-008
Changing Tseed to 1e-012
Changing Tseed to 1e-007
Changing Tseed to 1e-013
Changing Tseed to 1e-006
Changing Tseed to 1e-014
Changing Tseed to 1e-005
Changing Tseed to 1e-015
Changing Tseed to 0.0001
Changing Tseed to 1e-016
+Changing Tseed to 1e-009
Changing Tseed to 1e-011
Changing Tseed to 1e-008
Changing Tseed to 1e-012
Changing Tseed to 1e-007
Changing Tseed to 1e-013
Changing Tseed to 1e-006
Changing Tseed to 1e-014
Changing Tseed to 1e-005
Changing Tseed to 1e-015
Changing Tseed to 0.0001
Changing Tseed to 1e-016
+Changing Tseed to 1e-009
Changing Tseed to 1e-011
Changing Tseed to 1e-008
Changing Tseed to 1e-012
Changing Tseed to 1e-007
Changing Tseed to 1e-013
Changing Tseed to 1e-006
Changing Tseed to 1e-014
Changing Tseed to 1e-005
Changing Tseed to 1e-015
Changing Tseed to 0.0001
Changing Tseed to 1e-016
+Changing Tseed to 1e-009
Changing Tseed to 1e-011
Changing Tseed to 1e-008
Changing Tseed to 1e-012
Changing Tseed to 1e-007
Changing Tseed to 1e-013
Changing Tseed to 1e-006
Changing Tseed to 1e-014
Changing Tseed to 1e-005
Changing Tseed to 1e-015
Changing Tseed to 0.0001
Changing Tseed to 1e-016
+Changing Tseed to 1e-009
Changing Tseed to 1e-011
Changing Tseed to 1e-008
Changing Tseed to 1e-012
Changing Tseed to 1e-007
Changing Tseed to 1e-013
Changing Tseed to 1e-006
Changing Tseed to 1e-014
Changing Tseed to 1e-005
Changing Tseed to 1e-015
Changing Tseed to 0.0001
Changing Tseed to 1e-016
+Changing Tseed to 1e-009
Changing Tseed to 1e-011
Changing Tseed to 1e-008
Changing Tseed to 1e-012
Changing Tseed to 1e-007
Changing Tseed to 1e-013
Changing Tseed to 1e-006
Changing Tseed to 1e-014
Changing Tseed to 1e-005
Changing Tseed to 1e-015
Changing Tseed to 0.0001
Changing Tseed to 1e-016
+Changing Tseed to 1e-009
Changing Tseed to 1e-011
Changing Tseed to 1e-008
Changing Tseed to 1e-012
Changing Tseed to 1e-007
Changing Tseed to 1e-013
Changing Tseed to 1e-006
Changing Tseed to 1e-014
Changing Tseed to 1e-005
Changing Tseed to 1e-015
Changing Tseed to 0.0001
Changing Tseed to 1e-016
+Changing Tseed to 1e-009
Changing Tseed to 1e-011
Changing Tseed to 1e-008
Changing Tseed to 1e-012
Changing Tseed to 1e-007
Changing Tseed to 1e-013
Changing Tseed to 1e-006
Changing Tseed to 1e-014
Changing Tseed to 1e-005
Changing Tseed to 1e-015
Changing Tseed to 0.0001
Changing Tseed to 1e-016
+Changing Tseed to 1e-009
Changing Tseed to 1e-011
Changing Tseed to 1e-008
Changing Tseed to 1e-012
Changing Tseed to 1e-007
Changing Tseed to 1e-013
Changing Tseed to 1e-006
Changing Tseed to 1e-014
Changing Tseed to 1e-005
Changing Tseed to 1e-015
Changing Tseed to 0.0001
Changing Tseed to 1e-016
+Changing Tseed to 1e-009
Changing Tseed to 1e-011
Changing Tseed to 1e-008
Changing Tseed to 1e-012
Changing Tseed to 1e-007
Changing Tseed to 1e-013
Changing Tseed to 1e-006
Changing Tseed to 1e-014
Changing Tseed to 1e-005
Changing Tseed to 1e-015
Changing Tseed to 0.0001
Changing Tseed to 1e-016
+Changing Tseed to 1e-009
Changing Tseed to 1e-011
Changing Tseed to 1e-008
Changing Tseed to 1e-012
Changing Tseed to 1e-007
Changing Tseed to 1e-013
Changing Tseed to 1e-006
Changing Tseed to 1e-014
Changing Tseed to 1e-005
Changing Tseed to 1e-015
Changing Tseed to 0.0001
Changing Tseed to 1e-016
+Changing Tseed to 1e-009
Changing Tseed to 1e-011
Changing Tseed to 1e-008
Changing Tseed to 1e-012
Changing Tseed to 1e-007
Changing Tseed to 1e-013
Changing Tseed to 1e-006
Changing Tseed to 1e-014
Changing Tseed to 1e-005
Changing Tseed to 1e-015
Changing Tseed to 0.0001
Changing Tseed to 1e-016
+Changing Tseed to 1e-009
Changing Tseed to 1e-011
Changing Tseed to 1e-008
Changing Tseed to 1e-012
Changing Tseed to 1e-007
Changing Tseed to 1e-013
Changing Tseed to 1e-006
Changing Tseed to 1e-014
Changing Tseed to 1e-005
Changing Tseed to 1e-015
Changing Tseed to 0.0001
Changing Tseed to 1e-016
+Changing Tseed to 1e-009
Changing Tseed to 1e-011
Changing Tseed to 1e-008
Changing Tseed to 1e-012
Changing Tseed to 1e-007
Changing Tseed to 1e-013
Changing Tseed to 1e-006
Changing Tseed to 1e-014
Changing Tseed to 1e-005
Changing Tseed to 1e-015
Changing Tseed to 0.0001
Changing Tseed to 1e-016
+Changing Tseed to 1e-009
Changing Tseed to 1e-011
Changing Tseed to 1e-008
Changing Tseed to 1e-012
Changing Tseed to 1e-007
Changing Tseed to 1e-013
Changing Tseed to 1e-006
Changing Tseed to 1e-014
Changing Tseed to 1e-005
Changing Tseed to 1e-015
Changing Tseed to 0.0001
Changing Tseed to 1e-016
+Changing Tseed to 1e-009
Changing Tseed to 1e-011
Changing Tseed to 1e-008
Changing Tseed to 1e-012
Changing Tseed to 1e-007
Changing Tseed to 1e-013
Changing Tseed to 1e-006
Changing Tseed to 1e-014
Changing Tseed to 1e-005
Changing Tseed to 1e-015
Changing Tseed to 0.0001
Changing Tseed to 1e-016
+Changing Tseed to 1e-009
Changing Tseed to 1e-011
Changing Tseed to 1e-008
Changing Tseed to 1e-012
Changing Tseed to 1e-007
Changing Tseed to 1e-013
Changing Tseed to 1e-006
Changing Tseed to 1e-014
Changing Tseed to 1e-005
Changing Tseed to 1e-015
Changing Tseed to 0.0001
Changing Tseed to 1e-016
+Changing Tseed to 1e-009
Changing Tseed to 1e-011
Changing Tseed to 1e-008
Changing Tseed to 1e-012
Changing Tseed to 1e-007
Changing Tseed to 1e-013
Changing Tseed to 1e-006
Changing Tseed to 1e-014
Changing Tseed to 1e-005
Changing Tseed to 1e-015
Changing Tseed to 0.0001
Changing Tseed to 1e-016
+Changing Tseed to 1e-009
Changing Tseed to 1e-011
Changing Tseed to 1e-008
Changing Tseed to 1e-012
Changing Tseed to 1e-007
Changing Tseed to 1e-013
Changing Tseed to 1e-006
Changing Tseed to 1e-014
Changing Tseed to 1e-005
Changing Tseed to 1e-015
Changing Tseed to 0.0001
Changing Tseed to 1e-016
+Changing Tseed to 1e-009
Changing Tseed to 1e-011
Changing Tseed to 1e-008
Changing Tseed to 1e-012
Changing Tseed to 1e-007
Changing Tseed to 1e-013
Changing Tseed to 1e-006
Changing Tseed to 1e-014
Changing Tseed to 1e-005
Changing Tseed to 1e-015
Changing Tseed to 0.0001
Changing Tseed to 1e-016
+Changing Tseed to 1e-009
Changing Tseed to 1e-011
Changing Tseed to 1e-008
Changing Tseed to 1e-012
Changing Tseed to 1e-007
Changing Tseed to 1e-013
Changing Tseed to 1e-006
Changing Tseed to 1e-014
Changing Tseed to 1e-005
Changing Tseed to 1e-015
Changing Tseed to 0.0001
Changing Tseed to 1e-016
+Changing Tseed to 1e-009
Changing Tseed to 1e-011
Changing Tseed to 1e-008
Changing Tseed to 1e-012
Changing Tseed to 1e-007
Changing Tseed to 1e-013
Changing Tseed to 1e-006
Changing Tseed to 1e-014
Changing Tseed to 1e-005
Changing Tseed to 1e-015
Changing Tseed to 0.0001
Changing Tseed to 1e-016
+Changing Tseed to 1e-009
Changing Tseed to 1e-011
Changing Tseed to 1e-008
Changing Tseed to 1e-012
Changing Tseed to 1e-007
Changing Tseed to 1e-013
Changing Tseed to 1e-006
Changing Tseed to 1e-014
Changing Tseed to 1e-005
Changing Tseed to 1e-015
Changing Tseed to 0.0001
Changing Tseed to 1e-016
+Changing Tseed to 1e-009
Changing Tseed to 1e-011
Changing Tseed to 1e-008
Changing Tseed to 1e-012
Changing Tseed to 1e-007
Changing Tseed to 1e-013
Changing Tseed to 1e-006
Changing Tseed to 1e-014
Changing Tseed to 1e-005
Changing Tseed to 1e-015
Changing Tseed to 0.0001
Changing Tseed to 1e-016
+Changing Tseed to 1e-009
Changing Tseed to 1e-011
Changing Tseed to 1e-008
Changing Tseed to 1e-012
Changing Tseed to 1e-007
Changing Tseed to 1e-013
Changing Tseed to 1e-006
Changing Tseed to 1e-014
Changing Tseed to 1e-005
Changing Tseed to 1e-015
Changing Tseed to 0.0001
Changing Tseed to 1e-016
+Changing Tseed to 1e-009
Changing Tseed to 1e-011
Changing Tseed to 1e-008
Changing Tseed to 1e-012
Changing Tseed to 1e-007
Changing Tseed to 1e-013
Changing Tseed to 1e-006
Changing Tseed to 1e-014
Changing Tseed to 1e-005
Changing Tseed to 1e-015
Changing Tseed to 0.0001
Changing Tseed to 1e-016
+Changing Tseed to 1e-009
Changing Tseed to 1e-011
Changing Tseed to 1e-008
Changing Tseed to 1e-012
Changing Tseed to 1e-007
Changing Tseed to 1e-013
Changing Tseed to 1e-006
Changing Tseed to 1e-014
Changing Tseed to 1e-005
Changing Tseed to 1e-015
Changing Tseed to 0.0001
Changing Tseed to 1e-016
+Changing Tseed to 1e-009
Changing Tseed to 1e-011
Changing Tseed to 1e-008
Changing Tseed to 1e-012
Changing Tseed to 1e-007
Changing Tseed to 1e-013
Changing Tseed to 1e-006
Changing Tseed to 1e-014
Changing Tseed to 1e-005
Changing Tseed to 1e-015
Changing Tseed to 0.0001
Changing Tseed to 1e-016
+Changing Tseed to 1e-009
Changing Tseed to 1e-011
Changing Tseed to 1e-008
Changing Tseed to 1e-012
Changing Tseed to 1e-007
Changing Tseed to 1e-013
Changing Tseed to 1e-006
Changing Tseed to 1e-014
Changing Tseed to 1e-005
Changing Tseed to 1e-015
Changing Tseed to 0.0001
Changing Tseed to 1e-016
+Changing Tseed to 1e-009
Changing Tseed to 1e-011
Changing Tseed to 1e-008
Changing Tseed to 1e-012
Changing Tseed to 1e-007
Changing Tseed to 1e-013
Changing Tseed to 1e-006
Changing Tseed to 1e-014
Changing Tseed to 1e-005
Changing Tseed to 1e-015
Changing Tseed to 0.0001
Changing Tseed to 1e-016
+Changing Tseed to 1e-009
Changing Tseed to 1e-011
Changing Tseed to 1e-008
Changing Tseed to 1e-012
Changing Tseed to 1e-007
Changing Tseed to 1e-013
Changing Tseed to 1e-006
Changing Tseed to 1e-014
Changing Tseed to 1e-005
Changing Tseed to 1e-015
Changing Tseed to 0.0001
Changing Tseed to 1e-016
+Changing Tseed to 1e-009
Changing Tseed to 1e-011
Changing Tseed to 1e-008
Changing Tseed to 1e-012
Changing Tseed to 1e-007
Changing Tseed to 1e-013
Changing Tseed to 1e-006
Changing Tseed to 1e-014
Changing Tseed to 1e-005
Changing Tseed to 1e-015
Changing Tseed to 0.0001
Changing Tseed to 1e-016
to 7.25e-018
Heightened Def Con from 7.25e-018 ++++++++++++++++++++++++++++++++to 1.225e-017
Heightened Def Con from 1.225e-017 +++++++++++++++++++++++++++to 8.77558e-017
Heightened Def Con from 8.77558e-017 +++++++++++++++++++to 8.87558e-017
Heightened Def Con from 8.87558e-017 ++++++++++++++++++++++to 1.4936e-016
Heightened Def Con from 1.4936e-016 ++++++++++++++++++++++to 1.5036e-016
Heightened Def Con from 1.5036e-016 ++++++++++++++++++++++to 1.5136e-016
Heightened Def Con from 1.5136e-016 +++++++++++++++++++++++++to 1.5236e-016
Heightened Def Con from 1.5236e-016 +++++++++++++++++++++++to 1.82163e-016
Heightened Def Con from 1.82163e-016 +++++++++++++++++++++++++++++to 1.83163e-016
Heightened Def Con from 1.83163e-016 ++++++++++++++++++++to 1.84163e-016
Heightened Def Con from 1.84163e-016 ++++++++++++++++++++++++++++++++to 3.4577e-014
Heightened Def Con from 3.4577e-014 +++++++++++++++++to 3.4578e-014
Heightened Def Con from 3.4578e-014 +++++++++++++++++++++++to 3.45855e-014
Heightened Def Con from 3.45855e-014 ++++++++++++++++++++to 3.45929e-014
Heightened Def Con from 3.45929e-014 ++++++++++++to 3.46525e-014
Heightened Def Con from 3.46525e-014 +++++++++++++++++++++to 3.46535e-014
Heightened Def Con from 3.46535e-014 ++++++++++++++++++++++to 3.46545e-014
Heightened Def Con from 3.46545e-014 ++++++++++++++++++++to 3.47142e-014
Heightened Def Con from 3.47142e-014 ++++++++++++++++++to 3.47152e-014
Heightened Def Con from 3.47152e-014 ++++++++++++++++++++to 3.47748e-014
Heightened Def Con from 3.47748e-014 +++++++++++++++++++to 3.47758e-014
Heightened Def Con from 3.47758e-014 +++++++++++++++++++++to 3.52526e-014
Heightened Def Con from 3.52526e-014 ++++++++++++++++to 3.52536e-014
Heightened Def Con from 3.52536e-014 +++++++++++++++++++++to 3.53132e-014
Heightened Def Con from 3.53132e-014 +++++++++++++++to 3.53207e-014
Heightened Def Con from 3.53207e-014 ++++++++++++++++++++to 3.53281e-014
Heightened Def Con from 3.53281e-014 +++++++++++++++++++to 3.53877e-014
Heightened Def Con from 3.53877e-014 +++++++++++++++++++to 3.58645e-014
Heightened Def Con from 3.58645e-014 +++++++++++++++to 3.58655e-014
Heightened Def Con from 3.58655e-014 ++++++++++++++++++to 3.59251e-014
Heightened Def Con from 3.59251e-014 +++++++++++++++++++to 3.59326e-014
Heightened Def Con from 3.59326e-014 +++++++++++++++++++++to 3.594e-014
Heightened Def Con from 3.594e-014 +++++++++++++++++++to 3.59997e-014
Heightened Def Con from 3.59997e-014 ++++++++++++++++++++to 3.60007e-014
Heightened Def Con from 3.60007e-014 +++++++++++++++++++to 3.60603e-014
Heightened Def Con from 3.60603e-014 ++++++++++++++++++++to 3.60677e-014
Heightened Def Con from 3.60677e-014 ++++++++++++++++++++++to 3.61273e-014
Heightened Def Con from 3.61273e-014 +++++++++++to 3.61869e-014
Heightened Def Con from 3.61869e-014 ++++++++++++++++++++++to 3.61944e-014
Heightened Def Con from 3.61944e-014 ++++++++++++++++++++to 3.62018e-014
Heightened Def Con from 3.62018e-014 ++++++++++++++++++++++to 3.66787e-014
Heightened Def Con from 3.66787e-014 +++++++++++++++++++++to 3.66861e-014
Heightened Def Con from 3.66861e-014 ++++++++++++++++++++to 3.66936e-014
Heightened Def Con from 3.67085e-014 +++++++++++++++++++++to 3.67681e-014
Heightened Def Con from 3.67681e-014 ++++++++++++++++to 3.67691e-014
Heightened Def Con from 3.67691e-014 +++++++++++++++++++to 3.67701e-014
Heightened Def Con from 3.67701e-014 ++++++++++++++++++to 3.67775e-014
Heightened Def Con from 3.67775e-014 +++++++++++++++++++++++to 3.6785e-014
Heightened Def Con from 3.6785e-014 +++++++++++++++++++++to 2.80985e-013
Heightened Def Con from 2.80985e-013 +++++++++++++++++++++to 2.81462e-013
Heightened Def Con from 2.81462e-013 +++++++++++++++++++++to 2.85277e-013
Heightened Def Con from 2.85277e-013 +++++++++++++++++++++to 3.15802e-013
Heightened Def Con from 3.15802e-013 +++++++++++++++++++to 3.16279e-013
Heightened Def Con from 3.16279e-013 +++++++++++++++++++to 3.50611e-013
Heightened Def Con from 3.50611e-013 +++++++++++++++++to 3.50618e-013
Heightened Def Con from 3.50618e-013 ++++++++++++++++++to 3.51095e-013
Heightened Def Con from 3.51095e-013 +++++++++++++++++++++to 3.51572e-013
Heightened Def Con from 3.51572e-013 +++++++++++++++++to 3.55387e-013
Heightened Def Con from 3.55387e-013 ++++++++++++++++++to 3.55864e-013
Heightened Def Con from 3.55864e-013 ++++++++++++++++to 3.86382e-013
Heightened Def Con from 3.86382e-013 +++++++++++to 3.86859e-013
Heightened Def Con from 3.86859e-013 ++++++++++++++++++++to 3.86866e-013
Heightened Def Con from 3.86866e-013 ++++++to 3.86867e-013
Heightened Def Con from 3.86867e-013 ++++++++++++++++++++++to 3.86927e-013
Heightened Def Con from 3.86927e-013 +++++++++++++++++++++to 4.17504e-013
Heightened Def Con from 4.17504e-013 ++++++++++++++++++++to 4.21319e-013
Heightened Def Con from 4.21319e-013 +++++++++++++++++++to 4.2132e-013
Heightened Def Con from 4.2132e-013 ++++++++++++++++++to 4.21379e-013
Heightened Def Con from 4.21379e-013 ++++++++++++++++++++to 4.21439e-013
Heightened Def Con from 4.21439e-013 +++++++++++++++++to 4.21447e-013
Heightened Def Con from 4.21447e-013 ++++++++++++++++++++++to 4.21923e-013
Heightened Def Con from 4.21923e-013 +++++++++++++++++++to 6.66124e-013
Heightened Def Con from 6.66124e-013 ++++++++++++++++++to 6.666e-013
Heightened Def Con from 6.666e-013 +++++++++++++++++++to 6.97178e-013
Heightened Def Con from 6.97178e-013 ++++++++++++++++++to 6.97185e-013
Heightened Def Con from 6.97185e-013 ++++++++++++++++++to 6.97186e-013
Heightened Def Con from 6.97186e-013 +++++++++++++++++++to 7.01001e-013
Heightened Def Con from 7.01001e-013 ++++to 7.04815e-013
Heightened Def Con from 7.04815e-013 +++++++++++++++++++to 7.0863e-013
Heightened Def Con from 7.0863e-013 ++++++++++++++++++to 7.08638e-013
Heightened Def Con from 7.08638e-013 +++++++++++++++++++to 7.08645e-013
Heightened Def Con from 7.08645e-013 +++++++++++++++++++++to 7.09122e-013
Heightened Def Con from 7.09122e-013 ++++++++++++++++++to 7.09599e-013
Heightened Def Con from 7.09599e-013 +++++++++++++++++++to 7.09606e-013
Heightened Def Con from 7.09606e-013 ++++++++++++++++++++to 7.09666e-013
Heightened Def Con from 7.09666e-013 ++++++++++++++++++++to 7.09673e-013
Heightened Def Con from 7.09673e-013 ++++++++++++++++to 7.09674e-013
Heightened Def Con from 7.09674e-013 +++++++++++++++++to 7.09675e-013
Heightened Def Con from 7.09675e-013 +++++++++++++++++++to 7.10152e-013
Heightened Def Con from 7.10152e-013 +++++++++++++++++++to 7.10212e-013
Heightened Def Con from 7.10212e-013 ++++++++++++++++++to 7.10213e-013
Heightened Def Con from 7.10213e-013 +++++++++++++++++to 7.10214e-013
Heightened Def Con from 7.10214e-013 +++++++++++++++to 7.10691e-013
Heightened Def Con from 7.10691e-013 ++++++++++++++++++to 7.1075e-013
Heightened Def Con from 7.1075e-013 ++++++++++++++++to 7.11227e-013
Heightened Def Con from 7.11227e-013 ++to 7.11287e-013
Heightened Def Con from 7.11287e-013 ++++++++++++++++to 7.11294e-013
Heightened Def Con from 7.11294e-013 +to 7.11295e-013
Heightened Def Con from 7.11295e-013 ++++++++++++++++++++to 7.7239e-013
Heightened Def Con from 7.7239e-013 +++++++++++++++++++++to 7.76204e-013
Heightened Def Con from 7.76204e-013 ++++++++++++++++to 7.76205e-013
Heightened Def Con from 7.76205e-013 ++++to 7.76265e-013
Heightened Def Con from 7.76265e-013 +++++++++++++++++++++to 8.41115e-013
Heightened Def Con from 8.41115e-013 ++++++++++++++++++++to 1.08532e-012
Heightened Def Con from 1.08532e-012 +++++++++++++++++++to 1.11583e-012
Heightened Def Con from 1.11583e-012 ++++++++++++++++++to 1.11584e-012
Heightened Def Con from 1.11584e-012 +++++++++++++++++++++to 1.11966e-012
Heightened Def Con from 1.11966e-012 +++++++++++++++++to 1.11966e-012
Heightened Def Con from 1.11966e-012 +++++++++++++++++++to 1.11972e-012
Heightened Def Con from 1.11972e-012 ++++++++++++++++++to 1.12019e-012
Heightened Def Con from 1.12019e-012 ++++++++++++++++++++to 1.15119e-012
Heightened Def Con from 1.15119e-012 ++++++++++++to 1.15125e-012
Heightened Def Con from 1.15125e-012 +++++++++++++++to 1.15506e-012
Heightened Def Con from 1.15506e-012 ++++++++++++++++++++to 1.15888e-012
Heightened Def Con from 1.15888e-012 +++++++++++++++++to 1.15935e-012
Heightened Def Con from 1.15935e-012 +++++++++++++++++++to 1.16317e-012
Heightened Def Con from 1.16317e-012 ++++++++++++++++++to 1.16698e-012
Heightened Def Con from 1.16698e-012 +++to 1.16704e-012
Heightened Def Con from 1.16704e-012 ++++++++++++++++++++to 1.1671e-012
Heightened Def Con from 1.1671e-012 ++++++++++++++to 1.16758e-012
Heightened Def Con from 1.16758e-012 +++++++++++++++++++to 1.67964e-011
Heightened Def Con from 1.67964e-011 to 1.67964e-011
Heightened Def Con from 1.67964e-011 ++++++++++++++++to 1.68269e-011
Heightened Def Con from 1.68269e-011 ++++++++++++++++to 1.70711e-011
Heightened Def Con from 1.70711e-011 +++++++++++++++++to 1.73152e-011
Heightened Def Con from 1.73152e-011 ++++++++++++++++++to 1.73457e-011
Heightened Def Con from 1.73457e-011 +++++++++++++++++++to 3.29707e-011
Heightened Def Con from 3.29707e-011 ++++++++++++++++++to 3.29707e-011
Heightened Def Con from 3.29707e-011 +++++++++++++++++++to 5.05794e-011
Heightened Def Con from 5.05794e-011 +++++++++++++++to 5.05794e-011
Heightened Def Con from 5.05794e-011 +++++++++++++to 5.05794e-011
Heightened Def Con from 5.05794e-011 +++++++++++++to 5.05794e-011
Heightened Def Con from 5.05794e-011 +++++++++++++++++to 5.06099e-011
Heightened Def Con from 5.06099e-011 +++to 5.06137e-011
Heightened Def Con from 5.06137e-011 +++++++++++++++to 5.06137e-011
Heightened Def Con from 5.06137e-011 ++++++++++++++++++to 5.06442e-011
Heightened Def Con from 5.06442e-011 ++++++++++++++++++to 5.25974e-011
Heightened Def Con from 5.25974e-011 ++++++++++++++++++++to 5.25978e-011
Heightened Def Con from 5.25978e-011 ++++++++++++to 1.0526e-009
Heightened Def Con from 1.0526e-009 +++++++++to 1.0526e-009
Heightened Def Con from 1.0526e-009 to 1.0526e-009
Heightened Def Con from 1.0526e-009 ++++to 1.0526e-009
Heightened Def Con from 1.0526e-009 ++++to 1.05263e-009
Heightened Def Con from 1.05263e-009 ++++++++++to 1.05263e-009
Heightened Def Con from 1.05263e-009 ++++to 1.05459e-009
Heightened Def Con from 1.05459e-009 +++++to 1.05459e-009
Heightened Def Con from 1.05459e-009 ++++++to 1.05459e-009
Heightened Def Con from 1.05459e-009 ++++++to 2.17983e-009
Heightened Def Con from 2.17983e-009 ++++to 2.17983e-009
Heightened Def Con from 2.17983e-009 ++++++to 2.17983e-009
Heightened Def Con from 2.17983e-009 +++++++++++++to 2.19546e-009
Heightened Def Con from 2.19546e-009 ++to 3.21108e-009
Heightened Def Con from 3.21108e-009 ++to 3.21133e-009
Heightened Def Con from 3.21133e-009 to 3.21133e-009
Heightened Def Con from 3.21133e-009 to 3.21133e-009
Heightened Def Con from 3.21133e-009 +to 3.21133e-009
Heightened Def Con from 3.21133e-009 +to 3.21133e-009
Heightened Def Con from 3.21133e-009 +to 3.33633e-009
Heightened Def Con from 3.33633e-009 ++to 4.33658e-009
Heightened Def Con from 4.33658e-009 to 4.33658e-009
Heightened Def Con from 4.33658e-009 to 4.33661e-009
Heightened Def Con from 4.33661e-009 to 7.33661e-009
Heightened Def Con from 8.50987e-009 to 8.50993e-009
Heightened Def Con from 8.50996e-009 to 8.51387e-009
Heightened Def Con from 8.51837e-009 to 8.54962e-009
Heightened Def Con from 8.57389e-009 to 9.57414e-009
Heightened Def Con from 9.69911e-009 to 1.26991e-008
Heightened Def Con from 1.124 to 1.124
Heightened Def Con from 1.12402 to 1.12402
Heightened Def Con from 2.06525 to 2.06525
Heightened Def Con from 3.052 to 3.052
Heightened Def Con from 3.05203 to 3.05203
Heightened Def Con from 6.0641 to 6.0641
Heightened Def Con from 6.06423 to 6.06423
Heightened Def Con from 6.06426 to 6.06426
Heightened Def Con from 8.30613 +to 8.30613
Heightened Def Con from 8.30613 to 8.30613
Heightened Def Con from 8.30613 +to 8.30613
Heightened Def Con from 11.0443 to 11.0443
Heightened Def Con from 11.0446 to 11.0446
Heightened Def Con from 11.0446 to 11.0446
Heightened Def Con from 11.0446 to 11.0446
Heightened Def Con from 11.0446 to 11.0446
Heightened Def Con from 12.0289 to 12.0289
Heightened Def Con from 12.3103 to 12.3103
Heightened Def Con from 16.3082 +to 16.3082
Heightened Def Con from 16.3082 to 16.3082
Heightened Def Con from 16.3082 to 16.3082
Heightened Def Con from 16.3082 to 16.3082
Heightened Def Con from 18.0603 to 18.0603
Heightened Def Con from 18.0606 to 18.0606
Heightened Def Con from 20.3117 to 20.3117
Heightened Def Con from 22.0531 to 22.0531
Heightened Def Con from 22.0533 to 22.0533
Heightened Def Con from 22.0533 to 22.0533
Heightened Def Con from 24.0331 to 24.0331
Heightened Def Con from 24.0333 to 24.0333
Heightened Def Con from 26.0535 to 26.0535
Heightened Def Con from 26.0546 to 26.0546
Heightened Def Con from 29.0395 to 29.0395
Heightened Def Con from 29.0396 to 29.0396
Heightened Def Con from 29.0396 to 29.0396

Date: Thu Sep 24 12:17:16 2020
Total elapsed time: 45.514 seconds.

tnom = 27
temp = 27
method = modified trap
totiter = 494483
traniter = 494483
tranpoints = 93680
accept = 62694
rejected = 33316
matrix size = 131
fillins = 543
solver = Normal
Thread vector: 37.0/29.1[3] 28.3/11.5[3] 18.8/9.9[3] 1.3/1.9[1]  2592/500
Matrix Compiler1: 77.42 KB object code size  14.3/8.3/[3.5]
Matrix Compiler2: 20.47 KB object code size  4.8/5.6/[1.8]

