Circuit: * C:\Users\dvone\Desktop\Engineering 3.2\E-Design 344\GitRepo\E344\LTSpice\Assignment 2\von_Eschwege_21785155_A2 - Copy.asc

Early termination of direct N-R iteration.
Direct Newton iteration failed to find .op point.  (Use ".option noopiter" to skip.)
Starting Gmin stepping
Gmin = 10
vernier = 0.5
vernier = 0.25
vernier = 0.125
Gmin = 5.5165
vernier = 0.0625
vernier = 0.03125
vernier = 0.015625
vernier = 0.0078125
Gmin = 5.49501
vernier = 0.00390625
vernier = 0.00195313
vernier = 0.000976563
vernier = 0.000488281
Gmin = 5.50104
Gmin = 0
Gmin stepping failed

Starting source stepping with srcstepmethod=0
Source Step = 3.0303%
Source Step = 33.3333%
Source Step = 42.4302%
Starting source stepping with srcstepmethod=1
Source Step = 3.0303%
Source stepping failed

Pseudo Transient succeeded in finding the operating point at 15.2587 s.
Ignoring empty pin current: Ix(u3:1)
Ignoring empty pin current: Ix(u3:2)
Ignoring empty pin current: Ix(u3:1)
Ignoring empty pin current: Ix(u3:2)
Heightened Def Con from 0.0329 to 0.0329
Heightened Def Con from 0.453234 to 0.453234
Heightened Def Con from 0.453332 to 0.453332
Heightened Def Con from 0.8535 to 0.8535
Heightened Def Con from 0.853631 to 0.853631
Heightened Def Con from 0.853724 to 0.853724
Heightened Def Con from 1.6687 to 1.6687
Heightened Def Con from 1.66896 to 1.66896
Heightened Def Con from 2.46912 to 2.46912
Heightened Def Con from 2.46939 to 2.46939
Heightened Def Con from 2.46942 to 2.46942
Heightened Def Con from 2.86987 to 2.86987
Heightened Def Con from 2.87 to 2.87
Heightened Def Con from 2.87002 to 2.87002
Heightened Def Con from 3.26528 to 3.26528
Heightened Def Con from 5.256 to 5.256
Heightened Def Con from 5.25602 to 5.25602
Heightened Def Con from 11.2635 to 11.2635
Heightened Def Con from 11.2636 to 11.2636
Heightened Def Con from 11.2637 to 11.2637
Heightened Def Con from 11.6561 to 11.6561
Heightened Def Con from 14.8652 to 14.8652
Heightened Def Con from 14.8653 to 14.8653
Heightened Def Con from 15.6572 to 15.6572
Heightened Def Con from 15.6573 to 15.6573
Heightened Def Con from 16.452 to 16.452
Heightened Def Con from 17.2603 to 17.2603
Heightened Def Con from 17.2604 to 17.2604
Heightened Def Con from 17.2605 to 17.2605
Heightened Def Con from 18.0697 to 18.0697
Heightened Def Con from 18.0698 to 18.0698
Heightened Def Con from 18.8683 to 18.8683
Heightened Def Con from 18.8686 to 18.8686
Heightened Def Con from 18.8686 to 18.8686
Heightened Def Con from 21.0929 to 21.0929
Heightened Def Con from 22.8647 to 22.8647
Heightened Def Con from 22.8648 to 22.8648
Heightened Def Con from 22.8649 to 22.8649
Heightened Def Con from 23.2613 to 23.2613
Heightened Def Con from 23.2613 to 23.2613
Heightened Def Con from 24.4495 to 24.4495
Heightened Def Con from 25.6651 to 25.6651
Heightened Def Con from 26.0725 to 26.0725
Heightened Def Con from 26.4707 to 26.4707
Heightened Def Con from 26.4708 to 26.4708
Heightened Def Con from 27.2644 to 27.2644
Heightened Def Con from 28.0521 to 28.0521
Heightened Def Con from 29.6651 to 29.6651
Heightened Def Con from 29.6654 to 29.6654

Date: Thu Sep 24 01:01:07 2020
Total elapsed time: 30.043 seconds.

tnom = 27
temp = 27
method = modified trap
totiter = 204948
traniter = 194828
tranpoints = 73177
accept = 67663
rejected = 5641
matrix size = 131
fillins = 1454
solver = Normal
Thread vector: 33.6/20.8[3] 18.5/11.1[3] 15.1/11.9[3] 1.8/2.7[1]  2592/500
Matrix Compiler1: 230.46 KB object code size  89.1/53.1/[35.7]
Matrix Compiler2: 36.19 KB object code size  9.6/5.9/[2.9]

