Circuit: * C:\Users\dvone\Desktop\Engineering 3.2\E-Design 344\GitRepo\E344\LTSpice\Assignment 2\von_Eschwege_21785155_A2 - Copy.asc

Per .tran options, skipping operating point for transient analysis.
Ignoring empty pin current: Ix(u3:1)
Ignoring empty pin current: Ix(u3:2)
Changing Tseed to 1e-008
Changing Tseed to 1e-010
Changing Tseed to 1e-007
Changing Tseed to 1e-011
Changing Tseed to 1e-006
Changing Tseed to 1e-012
Changing Tseed to 1e-005
Changing Tseed to 1e-013
Changing Tseed to 0.0001
Changing Tseed to 1e-014
Changing Tseed to 0.001
Changing Tseed to 1e-015
Heightened Def Con from 0 Changing Tseed to 1e-009
Changing Tseed to 1e-011
Changing Tseed to 1e-008
Changing Tseed to 1e-012
Changing Tseed to 1e-007
Changing Tseed to 1e-013
Changing Tseed to 1e-006
Changing Tseed to 1e-014
Changing Tseed to 1e-005
Changing Tseed to 1e-015
Changing Tseed to 0.0001
Changing Tseed to 1e-016
+Changing Tseed to 1e-009
Changing Tseed to 1e-011
Changing Tseed to 1e-008
Changing Tseed to 1e-012
Changing Tseed to 1e-007
Changing Tseed to 1e-013
Changing Tseed to 1e-006
Changing Tseed to 1e-014
Changing Tseed to 1e-005
Changing Tseed to 1e-015
Changing Tseed to 0.0001
Changing Tseed to 1e-016
+Changing Tseed to 1e-009
Changing Tseed to 1e-011
Changing Tseed to 1e-008
Changing Tseed to 1e-012
Changing Tseed to 1e-007
Changing Tseed to 1e-013
Changing Tseed to 1e-006
Changing Tseed to 1e-014
Changing Tseed to 1e-005
Changing Tseed to 1e-015
Changing Tseed to 0.0001
Changing Tseed to 1e-016
+Changing Tseed to 1e-009
Changing Tseed to 1e-011
Changing Tseed to 1e-008
Changing Tseed to 1e-012
Changing Tseed to 1e-007
Changing Tseed to 1e-013
Changing Tseed to 1e-006
Changing Tseed to 1e-014
Changing Tseed to 1e-005
Changing Tseed to 1e-015
Changing Tseed to 0.0001
Changing Tseed to 1e-016
+Changing Tseed to 1e-009
Changing Tseed to 1e-011
Changing Tseed to 1e-008
Changing Tseed to 1e-012
Changing Tseed to 1e-007
Changing Tseed to 1e-013
Changing Tseed to 1e-006
Changing Tseed to 1e-014
Changing Tseed to 1e-005
Changing Tseed to 1e-015
Changing Tseed to 0.0001
Changing Tseed to 1e-016
+Changing Tseed to 1e-009
Changing Tseed to 1e-011
Changing Tseed to 1e-008
Changing Tseed to 1e-012
Changing Tseed to 1e-007
Changing Tseed to 1e-013
Changing Tseed to 1e-006
Changing Tseed to 1e-014
Changing Tseed to 1e-005
Changing Tseed to 1e-015
Changing Tseed to 0.0001
Changing Tseed to 1e-016
+Changing Tseed to 1e-009
Changing Tseed to 1e-011
Changing Tseed to 1e-008
Changing Tseed to 1e-012
Changing Tseed to 1e-007
Changing Tseed to 1e-013
Changing Tseed to 1e-006
Changing Tseed to 1e-014
Changing Tseed to 1e-005
Changing Tseed to 1e-015
Changing Tseed to 0.0001
Changing Tseed to 1e-016
+Changing Tseed to 1e-009
Changing Tseed to 1e-011
Changing Tseed to 1e-008
Changing Tseed to 1e-012
Changing Tseed to 1e-007
Changing Tseed to 1e-013
Changing Tseed to 1e-006
Changing Tseed to 1e-014
Changing Tseed to 1e-005
Changing Tseed to 1e-015
Changing Tseed to 0.0001
Changing Tseed to 1e-016
+Changing Tseed to 1e-009
Changing Tseed to 1e-011
Changing Tseed to 1e-008
Changing Tseed to 1e-012
Changing Tseed to 1e-007
Changing Tseed to 1e-013
Changing Tseed to 1e-006
Changing Tseed to 1e-014
Changing Tseed to 1e-005
Changing Tseed to 1e-015
Changing Tseed to 0.0001
Changing Tseed to 1e-016
+Changing Tseed to 1e-009
Changing Tseed to 1e-011
Changing Tseed to 1e-008
Changing Tseed to 1e-012
Changing Tseed to 1e-007
Changing Tseed to 1e-013
Changing Tseed to 1e-006
Changing Tseed to 1e-014
Changing Tseed to 1e-005
Changing Tseed to 1e-015
Changing Tseed to 0.0001
Changing Tseed to 1e-016
+Changing Tseed to 1e-009
Changing Tseed to 1e-011
Changing Tseed to 1e-008
Changing Tseed to 1e-012
Changing Tseed to 1e-007
Changing Tseed to 1e-013
Changing Tseed to 1e-006
Changing Tseed to 1e-014
Changing Tseed to 1e-005
Changing Tseed to 1e-015
Changing Tseed to 0.0001
Changing Tseed to 1e-016
+Changing Tseed to 1e-009
Changing Tseed to 1e-011
Changing Tseed to 1e-008
Changing Tseed to 1e-012
Changing Tseed to 1e-007
Changing Tseed to 1e-013
Changing Tseed to 1e-006
Changing Tseed to 1e-014
Changing Tseed to 1e-005
Changing Tseed to 1e-015
Changing Tseed to 0.0001
Changing Tseed to 1e-016
+Changing Tseed to 1e-009
Changing Tseed to 1e-011
Changing Tseed to 1e-008
Changing Tseed to 1e-012
Changing Tseed to 1e-007
Changing Tseed to 1e-013
Changing Tseed to 1e-006
Changing Tseed to 1e-014
Changing Tseed to 1e-005
Changing Tseed to 1e-015
Changing Tseed to 0.0001
Changing Tseed to 1e-016
+Changing Tseed to 1e-009
Changing Tseed to 1e-011
Changing Tseed to 1e-008
Changing Tseed to 1e-012
Changing Tseed to 1e-007
Changing Tseed to 1e-013
Changing Tseed to 1e-006
Changing Tseed to 1e-014
Changing Tseed to 1e-005
Changing Tseed to 1e-015
Changing Tseed to 0.0001
Changing Tseed to 1e-016
+Changing Tseed to 1e-009
Changing Tseed to 1e-011
Changing Tseed to 1e-008
Changing Tseed to 1e-012
Changing Tseed to 1e-007
Changing Tseed to 1e-013
Changing Tseed to 1e-006
Changing Tseed to 1e-014
Changing Tseed to 1e-005
Changing Tseed to 1e-015
Changing Tseed to 0.0001
Changing Tseed to 1e-016
+Changing Tseed to 1e-009
Changing Tseed to 1e-011
Changing Tseed to 1e-008
Changing Tseed to 1e-012
Changing Tseed to 1e-007
Changing Tseed to 1e-013
Changing Tseed to 1e-006
Changing Tseed to 1e-014
Changing Tseed to 1e-005
Changing Tseed to 1e-015
Changing Tseed to 0.0001
Changing Tseed to 1e-016
+Changing Tseed to 1e-009
Changing Tseed to 1e-011
Changing Tseed to 1e-008
Changing Tseed to 1e-012
Changing Tseed to 1e-007
Changing Tseed to 1e-013
Changing Tseed to 1e-006
Changing Tseed to 1e-014
Changing Tseed to 1e-005
Changing Tseed to 1e-015
Changing Tseed to 0.0001
Changing Tseed to 1e-016
+Changing Tseed to 1e-009
Changing Tseed to 1e-011
Changing Tseed to 1e-008
Changing Tseed to 1e-012
Changing Tseed to 1e-007
Changing Tseed to 1e-013
Changing Tseed to 1e-006
Changing Tseed to 1e-014
Changing Tseed to 1e-005
Changing Tseed to 1e-015
Changing Tseed to 0.0001
Changing Tseed to 1e-016
+Changing Tseed to 1e-009
Changing Tseed to 1e-011
Changing Tseed to 1e-008
Changing Tseed to 1e-012
Changing Tseed to 1e-007
Changing Tseed to 1e-013
Changing Tseed to 1e-006
Changing Tseed to 1e-014
Changing Tseed to 1e-005
Changing Tseed to 1e-015
Changing Tseed to 0.0001
Changing Tseed to 1e-016
+Changing Tseed to 1e-009
Changing Tseed to 1e-011
Changing Tseed to 1e-008
Changing Tseed to 1e-012
Changing Tseed to 1e-007
Changing Tseed to 1e-013
Changing Tseed to 1e-006
Changing Tseed to 1e-014
Changing Tseed to 1e-005
Changing Tseed to 1e-015
Changing Tseed to 0.0001
Changing Tseed to 1e-016
+Changing Tseed to 1e-009
Changing Tseed to 1e-011
Changing Tseed to 1e-008
Changing Tseed to 1e-012
Changing Tseed to 1e-007
Changing Tseed to 1e-013
Changing Tseed to 1e-006
Changing Tseed to 1e-014
Changing Tseed to 1e-005
Changing Tseed to 1e-015
Changing Tseed to 0.0001
Changing Tseed to 1e-016
+Changing Tseed to 1e-009
Changing Tseed to 1e-011
Changing Tseed to 1e-008
Changing Tseed to 1e-012
Changing Tseed to 1e-007
Changing Tseed to 1e-013
Changing Tseed to 1e-006
Changing Tseed to 1e-014
Changing Tseed to 1e-005
Changing Tseed to 1e-015
Changing Tseed to 0.0001
Changing Tseed to 1e-016
+Changing Tseed to 1e-009
Changing Tseed to 1e-011
Changing Tseed to 1e-008
Changing Tseed to 1e-012
Changing Tseed to 1e-007
Changing Tseed to 1e-013
Changing Tseed to 1e-006
Changing Tseed to 1e-014
Changing Tseed to 1e-005
Changing Tseed to 1e-015
Changing Tseed to 0.0001
Changing Tseed to 1e-016
+Changing Tseed to 1e-009
Changing Tseed to 1e-011
Changing Tseed to 1e-008
Changing Tseed to 1e-012
Changing Tseed to 1e-007
Changing Tseed to 1e-013
Changing Tseed to 1e-006
Changing Tseed to 1e-014
Changing Tseed to 1e-005
Changing Tseed to 1e-015
Changing Tseed to 0.0001
Changing Tseed to 1e-016
+Changing Tseed to 1e-009
Changing Tseed to 1e-011
Changing Tseed to 1e-008
Changing Tseed to 1e-012
Changing Tseed to 1e-007
Changing Tseed to 1e-013
Changing Tseed to 1e-006
Changing Tseed to 1e-014
Changing Tseed to 1e-005
Changing Tseed to 1e-015
Changing Tseed to 0.0001
Changing Tseed to 1e-016
+Changing Tseed to 1e-009
Changing Tseed to 1e-011
Changing Tseed to 1e-008
Changing Tseed to 1e-012
Changing Tseed to 1e-007
Changing Tseed to 1e-013
Changing Tseed to 1e-006
Changing Tseed to 1e-014
Changing Tseed to 1e-005
Changing Tseed to 1e-015
Changing Tseed to 0.0001
Changing Tseed to 1e-016
+Changing Tseed to 1e-009
Changing Tseed to 1e-011
Changing Tseed to 1e-008
Changing Tseed to 1e-012
Changing Tseed to 1e-007
Changing Tseed to 1e-013
Changing Tseed to 1e-006
Changing Tseed to 1e-014
Changing Tseed to 1e-005
Changing Tseed to 1e-015
Changing Tseed to 0.0001
Changing Tseed to 1e-016
+Changing Tseed to 1e-009
Changing Tseed to 1e-011
Changing Tseed to 1e-008
Changing Tseed to 1e-012
Changing Tseed to 1e-007
Changing Tseed to 1e-013
Changing Tseed to 1e-006
Changing Tseed to 1e-014
Changing Tseed to 1e-005
Changing Tseed to 1e-015
Changing Tseed to 0.0001
Changing Tseed to 1e-016
+Changing Tseed to 1e-009
Changing Tseed to 1e-011
Changing Tseed to 1e-008
Changing Tseed to 1e-012
Changing Tseed to 1e-007
Changing Tseed to 1e-013
Changing Tseed to 1e-006
Changing Tseed to 1e-014
Changing Tseed to 1e-005
Changing Tseed to 1e-015
Changing Tseed to 0.0001
Changing Tseed to 1e-016
+Changing Tseed to 1e-009
Changing Tseed to 1e-011
Changing Tseed to 1e-008
Changing Tseed to 1e-012
Changing Tseed to 1e-007
Changing Tseed to 1e-013
Changing Tseed to 1e-006
Changing Tseed to 1e-014
Changing Tseed to 1e-005
Changing Tseed to 1e-015
Changing Tseed to 0.0001
Changing Tseed to 1e-016
+Changing Tseed to 1e-009
Changing Tseed to 1e-011
Changing Tseed to 1e-008
Changing Tseed to 1e-012
Changing Tseed to 1e-007
Changing Tseed to 1e-013
Changing Tseed to 1e-006
Changing Tseed to 1e-014
Changing Tseed to 1e-005
Changing Tseed to 1e-015
Changing Tseed to 0.0001
Changing Tseed to 1e-016
+Changing Tseed to 1e-009
Changing Tseed to 1e-011
Changing Tseed to 1e-008
Changing Tseed to 1e-012
Changing Tseed to 1e-007
Changing Tseed to 1e-013
Changing Tseed to 1e-006
Changing Tseed to 1e-014
Changing Tseed to 1e-005
Changing Tseed to 1e-015
Changing Tseed to 0.0001
Changing Tseed to 1e-016
+Changing Tseed to 1e-009
Changing Tseed to 1e-011
Changing Tseed to 1e-008
Changing Tseed to 1e-012
Changing Tseed to 1e-007
Changing Tseed to 1e-013
Changing Tseed to 1e-006
Changing Tseed to 1e-014
Changing Tseed to 1e-005
Changing Tseed to 1e-015
Changing Tseed to 0.0001
Changing Tseed to 1e-016
+Changing Tseed to 1e-009
Changing Tseed to 1e-011
Changing Tseed to 1e-008
Changing Tseed to 1e-012
Changing Tseed to 1e-007
Changing Tseed to 1e-013
Changing Tseed to 1e-006
Changing Tseed to 1e-014
Changing Tseed to 1e-005
Changing Tseed to 1e-015
Changing Tseed to 0.0001
Changing Tseed to 1e-016
+Changing Tseed to 1e-009
Changing Tseed to 1e-011
Changing Tseed to 1e-008
Changing Tseed to 1e-012
Changing Tseed to 1e-007
Changing Tseed to 1e-013
Changing Tseed to 1e-006
Changing Tseed to 1e-014
Changing Tseed to 1e-005
Changing Tseed to 1e-015
Changing Tseed to 0.0001
Changing Tseed to 1e-016
+Changing Tseed to 1e-009
Changing Tseed to 1e-011
Changing Tseed to 1e-008
Changing Tseed to 1e-012
Changing Tseed to 1e-007
Changing Tseed to 1e-013
Changing Tseed to 1e-006
Changing Tseed to 1e-014
Changing Tseed to 1e-005
Changing Tseed to 1e-015
Changing Tseed to 0.0001
Changing Tseed to 1e-016
+Changing Tseed to 1e-009
Changing Tseed to 1e-011
Changing Tseed to 1e-008
Changing Tseed to 1e-012
Changing Tseed to 1e-007
Changing Tseed to 1e-013
Changing Tseed to 1e-006
Changing Tseed to 1e-014
Changing Tseed to 1e-005
Changing Tseed to 1e-015
Changing Tseed to 0.0001
Changing Tseed to 1e-016
+Changing Tseed to 1e-009
Changing Tseed to 1e-011
Changing Tseed to 1e-008
Changing Tseed to 1e-012
Changing Tseed to 1e-007
Changing Tseed to 1e-013
Changing Tseed to 1e-006
Changing Tseed to 1e-014
Changing Tseed to 1e-005
Changing Tseed to 1e-015
Changing Tseed to 0.0001
Changing Tseed to 1e-016
+Changing Tseed to 1e-009
Changing Tseed to 1e-011
Changing Tseed to 1e-008
Changing Tseed to 1e-012
Changing Tseed to 1e-007
Changing Tseed to 1e-013
Changing Tseed to 1e-006
Changing Tseed to 1e-014
Changing Tseed to 1e-005
Changing Tseed to 1e-015
Changing Tseed to 0.0001
Changing Tseed to 1e-016
+Changing Tseed to 1e-009
Changing Tseed to 1e-011
Changing Tseed to 1e-008
Changing Tseed to 1e-012
Changing Tseed to 1e-007
Changing Tseed to 1e-013
Changing Tseed to 1e-006
Changing Tseed to 1e-014
Changing Tseed to 1e-005
Changing Tseed to 1e-015
Changing Tseed to 0.0001
Changing Tseed to 1e-016
+Changing Tseed to 1e-009
Changing Tseed to 1e-011
Changing Tseed to 1e-008
Changing Tseed to 1e-012
Changing Tseed to 1e-007
Changing Tseed to 1e-013
Changing Tseed to 1e-006
Changing Tseed to 1e-014
Changing Tseed to 1e-005
Changing Tseed to 1e-015
Changing Tseed to 0.0001
Changing Tseed to 1e-016
+Changing Tseed to 1e-009
Changing Tseed to 1e-011
Changing Tseed to 1e-008
Changing Tseed to 1e-012
Changing Tseed to 1e-007
Changing Tseed to 1e-013
Changing Tseed to 1e-006
Changing Tseed to 1e-014
Changing Tseed to 1e-005
Changing Tseed to 1e-015
Changing Tseed to 0.0001
Changing Tseed to 1e-016
to 7.25e-018
Heightened Def Con from 7.25e-018 +++++++++++++++++++++++to 1.225e-017
Heightened Def Con from 1.225e-017 +++++++++++++++++++++++to 2.81512e-017
Heightened Def Con from 2.81512e-017 +++++++++++++++to 2.91512e-017
Heightened Def Con from 2.91512e-017 +++++++++++++++++++++to 3.01512e-017
Heightened Def Con from 3.01512e-017 +++++++++++++++++++++to 3.86017e-017
Heightened Def Con from 3.86017e-017 ++++++++++++++++++++to 3.96017e-017
Heightened Def Con from 3.96017e-017 +++++++++++++++++++++to 5.76044e-016
Heightened Def Con from 5.76044e-016 +++++++++++++++++++++++++++++++to 2.5622e-013
Heightened Def Con from 2.56221e-013 +++++++++++++++to 2.56222e-013
Heightened Def Con from 2.56222e-013 ++++++++++++++++++to 2.56223e-013
Heightened Def Con from 2.56223e-013 ++++++++++++++++++++to 2.567e-013
Heightened Def Con from 2.567e-013 ++++++++to 2.56701e-013
Heightened Def Con from 2.56701e-013 ++++++++++++++++++++++++++to 2.56761e-013
Heightened Def Con from 2.56761e-013 +++++++++++++++++++++to 2.56762e-013
Heightened Def Con from 2.56762e-013 +++++++++++++++++++++++to 2.56769e-013
Heightened Def Con from 2.56771e-013 +++++++++++++++++++to 2.56779e-013
Heightened Def Con from 2.56779e-013 +++++++++++++++++++to 2.56786e-013
Heightened Def Con from 2.56786e-013 ++++++++++++++++++to 2.60601e-013
Heightened Def Con from 2.60601e-013 ++++++++++++++++++++to 2.60608e-013
Heightened Def Con from 2.60608e-013 ++++++++++++++to 2.60616e-013
Heightened Def Con from 2.60616e-013 +++++++++++++++to 2.60675e-013
Heightened Def Con from 2.60675e-013 ++++++++++++++++++++++to 2.91194e-013
Heightened Def Con from 2.91194e-013 ++++++++++++++++++++to 2.91201e-013
Heightened Def Con from 2.91201e-013 ++++++++++++++to 2.91678e-013
Heightened Def Con from 2.91678e-013 to 2.91686e-013
Heightened Def Con from 2.91686e-013 +++++++++++++++++++++to 2.91693e-013
Heightened Def Con from 2.91693e-013 +++++++++++++to 2.91694e-013
Heightened Def Con from 2.91694e-013 ++++++++++++++++++++++to 2.91754e-013
Heightened Def Con from 2.91754e-013 ++++++++++++++++++to 2.91813e-013
Heightened Def Con from 2.91813e-013 ++++++++++++++++++to 2.95628e-013
Heightened Def Con from 2.95628e-013 +++++++++++++++++++++to 2.95688e-013
Heightened Def Con from 2.95688e-013 ++++++++++++++++++++to 2.95689e-013
Heightened Def Con from 2.95689e-013 +++++++++++++++++++to 2.95696e-013
Heightened Def Con from 2.95696e-013 +++++++++++++++++to 2.99511e-013
Heightened Def Con from 2.99511e-013 ++++++++++++++++++++to 2.99518e-013
Heightened Def Con from 2.99518e-013 ++++++++++++++++++++to 2.99526e-013
Heightened Def Con from 2.99526e-013 +++++++++++++to 3.00002e-013
Heightened Def Con from 3.00002e-013 +++++++++++++++++++to 2.25694e-012
Heightened Def Con from 2.25694e-012 ++++++++++++++++++++to 2.25695e-012
Heightened Def Con from 2.25695e-012 +++++++++++++++++++++to 2.50109e-012
Heightened Def Con from 2.50109e-012 +++++++++++++++to 2.50157e-012
Heightened Def Con from 2.50157e-012 ++++++++++++++++++++++to 2.50204e-012
Heightened Def Con from 2.50204e-012 ++++++++++++++++++++to 2.50252e-012
Heightened Def Con from 2.50252e-012 +++++++++++++++++++to 2.50253e-012
Heightened Def Con from 2.50253e-012 +++++++++++++++++++to 2.50301e-012
Heightened Def Con from 2.50301e-012 +++++++++++to 2.50682e-012
Heightened Def Con from 2.50682e-012 ++++++++++++++++++++to 2.51064e-012
Heightened Def Con from 2.51064e-012 ++++++++++++++++++to 2.75525e-012
Heightened Def Con from 2.75525e-012 +++++++++++++++++++++to 2.78577e-012
Heightened Def Con from 2.78577e-012 +++++++++++++++++to 2.78583e-012
Heightened Def Con from 2.78583e-012 +++++++++++++++++to 2.81635e-012
Heightened Def Con from 2.81635e-012 ++++++++++++++++++to 2.82016e-012
Heightened Def Con from 2.82016e-012 ++++to 2.82022e-012
Heightened Def Con from 2.82022e-012 ++++++to 2.82028e-012
Heightened Def Con from 2.82028e-012 ++++++++++++++to 2.82028e-012
Heightened Def Con from 2.82028e-012 +++++++++++++++++to 2.82076e-012
Heightened Def Con from 2.82076e-012 +++++++++++++++++++++to 2.82077e-012
Heightened Def Con from 2.82077e-012 ++++++++++++++++++to 3.06497e-012
Heightened Def Con from 3.06497e-012 +to 3.06503e-012
Heightened Def Con from 3.06503e-012 +++++++++++++++++++to 3.06503e-012
Heightened Def Con from 3.06503e-012 ++++++++++to 3.06884e-012
Heightened Def Con from 3.06884e-012 +++++++++++++++++to 3.06884e-012
Heightened Def Con from 3.06884e-012 +++to 3.06884e-012
Heightened Def Con from 3.06884e-012 ++++++++++++++++++to 3.06885e-012
Heightened Def Con from 3.06885e-012 +++++++++++++++++++to 1.86943e-011
Heightened Def Con from 1.86943e-011 +++++++++++++++++++to 1.86948e-011
Heightened Def Con from 1.86948e-011 +++++++++++++++++++to 1.86953e-011
Heightened Def Con from 1.86953e-011 +++++++++++to 1.86953e-011
Heightened Def Con from 1.86953e-011 ++++++++++++to 1.86953e-011
Heightened Def Con from 1.86953e-011 +++++++++++++++++++to 1.87258e-011
Heightened Def Con from 1.87258e-011 to 1.87259e-011
Heightened Def Con from 1.87259e-011 ++++++++++++++to 1.87297e-011
Heightened Def Con from 1.87297e-011 +++++++++++++++++++++to 1.87301e-011
Heightened Def Con from 1.87301e-011 ++++++++++++++++++to 1.8734e-011
Heightened Def Con from 1.8734e-011 ++++++++++++++++++++++to 2.06876e-011
Heightened Def Con from 2.06876e-011 +++++++++++++++++++to 3.82657e-011
Heightened Def Con from 3.82657e-011 ++to 3.82662e-011
Heightened Def Con from 3.82662e-011 +++++++++++++to 3.82666e-011
Heightened Def Con from 3.82666e-011 +++++++++++++++++++to 5.38917e-011
Heightened Def Con from 5.38917e-011 ++++++++++to 1.05389e-009
Heightened Def Con from 1.05389e-009 ++++to 1.17889e-009
Heightened Def Con from 1.17889e-009 +++to 1.1789e-009
Heightened Def Con from 1.1789e-009 +to 1.1789e-009
Heightened Def Con from 1.1789e-009 +++++++++++to 1.17893e-009
Heightened Def Con from 1.17893e-009 ++to 1.17893e-009
Heightened Def Con from 1.17893e-009 +++++++++++to 1.17893e-009
Heightened Def Con from 1.17893e-009 +to 1.19456e-009
Heightened Def Con from 1.19456e-009 +++++++++++++++to 1.35081e-009
Heightened Def Con from 1.35081e-009 ++++++++to 1.35084e-009
Heightened Def Con from 1.35084e-009 ++++++++++++to 1.47584e-009
Heightened Def Con from 1.47584e-009 ++++to 1.47584e-009
Heightened Def Con from 1.47584e-009 ++++++++++to 1.47584e-009
Heightened Def Con from 1.47584e-009 +to 1.47779e-009
Heightened Def Con from 1.47779e-009 ++++++to 1.47779e-009
Heightened Def Con from 1.47779e-009 to 1.47779e-009
Heightened Def Con from 1.47779e-009 ++++++++++to 1.47779e-009
Heightened Def Con from 1.47779e-009 ++++++++++++to 1.4778e-009
Heightened Def Con from 1.4778e-009 ++++++++to 1.47804e-009
Heightened Def Con from 1.47804e-009 ++++to 1.47807e-009
Heightened Def Con from 1.47807e-009 +to 1.47807e-009
Heightened Def Con from 1.47807e-009 +to 1.47807e-009
Heightened Def Con from 1.47807e-009 +to 2.47807e-009
Heightened Def Con from 2.47807e-009 ++to 2.4937e-009
Heightened Def Con from 2.4937e-009 to 2.49394e-009
Heightened Def Con from 2.49394e-009 to 2.49394e-009
Heightened Def Con from 2.49394e-009 +to 2.49397e-009
Heightened Def Con from 2.49397e-009 +to 2.49397e-009
Heightened Def Con from 2.49397e-009 ++to 3.49397e-009
Heightened Def Con from 3.49397e-009 to 3.494e-009
Heightened Def Con from 3.49419e-009 +to 3.49419e-009
Heightened Def Con from 3.49419e-009 to 3.49422e-009
Heightened Def Con from 3.49422e-009 to 3.49425e-009
Heightened Def Con from 3.49425e-009 +to 3.49426e-009
Heightened Def Con from 3.49426e-009 to 3.49426e-009
Heightened Def Con from 3.49426e-009 to 3.49426e-009
Heightened Def Con from 3.49426e-009 to 3.49429e-009
Heightened Def Con from 3.49429e-009 to 3.49624e-009
Heightened Def Con from 3.49624e-009 to 3.49628e-009
Heightened Def Con from 3.49628e-009 +to 3.49652e-009
Heightened Def Con from 3.49658e-009 to 3.62159e-009
Heightened Def Con from 3.62159e-009 ++to 3.62159e-009
Heightened Def Con from 3.62159e-009 to 3.62159e-009
Heightened Def Con from 3.62159e-009 to 3.62159e-009
Heightened Def Con from 3.62159e-009 to 3.76221e-009
Heightened Def Con from 3.7627e-009 +to 3.8877e-009
Heightened Def Con from 3.8877e-009 +to 4.88795e-009
Heightened Def Con from 4.8893e-009 to 4.88979e-009
Heightened Def Con from 4.89028e-009 to 4.92153e-009
Heightened Def Con from 4.92196e-009 to 4.92196e-009
Heightened Def Con from 4.92196e-009 +to 4.92221e-009
Heightened Def Con from 4.92221e-009 to 4.92221e-009
Heightened Def Con from 4.92221e-009 +to 5.06284e-009
Heightened Def Con from 5.06284e-009 to 5.06332e-009
Heightened Def Con from 5.06332e-009 to 5.06333e-009
Heightened Def Con from 5.06334e-009 to 5.06334e-009
Heightened Def Con from 5.06334e-009 to 6.06337e-009
Heightened Def Con from 6.06338e-009 to 6.09463e-009
Heightened Def Con from 6.09734e-009 to 9.09734e-009
Heightened Def Con from 1.3035 to 1.3035
Heightened Def Con from 1.30363 to 1.30363
Heightened Def Con from 1.30373 to 1.30373
Heightened Def Con from 1.61202 to 1.61202
Heightened Def Con from 1.61202 to 1.61202
Heightened Def Con from 1.61202 to 1.61202
Heightened Def Con from 1.6761 to 1.6761
Heightened Def Con from 2.4735 to 2.4735
Heightened Def Con from 2.47376 to 2.47376
Heightened Def Con from 2.4739 to 2.4739
Heightened Def Con from 2.47391 to 2.47391
Heightened Def Con from 2.8687 to 2.8687
Heightened Def Con from 2.86896 to 2.86896
Heightened Def Con from 4.4527 to 4.4527
Heightened Def Con from 4.45296 to 4.45296
Heightened Def Con from 4.45306 to 4.45306
Heightened Def Con from 4.8535 to 4.8535
Heightened Def Con from 4.85363 to 4.85363
Heightened Def Con from 6.0735 to 6.0735
Heightened Def Con from 6.8655 to 6.8655
Heightened Def Con from 6.86576 to 6.86576
Heightened Def Con from 6.86589 to 6.86589
Heightened Def Con from 6.86597 to 6.86597
Heightened Def Con from 7.2625 to 7.2625
Heightened Def Con from 7.26263 to 7.26263
Heightened Def Con from 7.26265 to 7.26265
Heightened Def Con from 7.6607 to 7.6607
Heightened Def Con from 7.66075 to 7.66075
Heightened Def Con from 7.66076 to 7.66076
Heightened Def Con from 8.0545 to 8.0545
Heightened Def Con from 8.05463 to 8.05463
Heightened Def Con from 8.05473 to 8.05473
Heightened Def Con from 8.4535 to 8.4535
Heightened Def Con from 8.45355 to 8.45355
Heightened Def Con from 8.45357 to 8.45357
Heightened Def Con from 8.71733 to 8.71733
Heightened Def Con from 8.8527 to 8.8527
Heightened Def Con from 8.85284 to 8.85284
Heightened Def Con from 8.85285 to 8.85285
Heightened Def Con from 9.6655 to 9.6655
Heightened Def Con from 9.66576 to 9.66576
Heightened Def Con from 9.66586 to 9.66586
Heightened Def Con from 10.0727 to 10.0727
Heightened Def Con from 10.0728 to 10.0728
Heightened Def Con from 11.2625 to 11.2625
Heightened Def Con from 12.0523 to 12.0523
Heightened Def Con from 12.4527 to 12.4527
Heightened Def Con from 12.4528 to 12.4528
Heightened Def Con from 12.4528 to 12.4528
Heightened Def Con from 14.0721 to 14.0721
Heightened Def Con from 15.2635 to 15.2635
Heightened Def Con from 15.2636 to 15.2636
Heightened Def Con from 15.6567 to 15.6567
Heightened Def Con from 15.6568 to 15.6568
Heightened Def Con from 15.6569 to 15.6569
Heightened Def Con from 16.8527 to 16.8527
Heightened Def Con from 16.853 to 16.853
Heightened Def Con from 16.8531 to 16.8531
Heightened Def Con from 17.2601 to 17.2601
Heightened Def Con from 18.8681 to 18.8681
Heightened Def Con from 18.8682 to 18.8682
Heightened Def Con from 20.4483 to 20.4483
Heightened Def Con from 20.4486 to 20.4486
Heightened Def Con from 20.8561 to 20.8561
Heightened Def Con from 20.8562 to 20.8562
Heightened Def Con from 20.8563 to 20.8563
Heightened Def Con from 21.6643 to 21.6643
Heightened Def Con from 21.6644 to 21.6644
Heightened Def Con from 21.6644 to 21.6644
Heightened Def Con from 21.8563 to 21.8563
Heightened Def Con from 22.0731 to 22.0731
Heightened Def Con from 22.0734 to 22.0734
Heightened Def Con from 22.0734 to 22.0734
Heightened Def Con from 22.0735 to 22.0735
Heightened Def Con from 24.0527 to 24.0527
Heightened Def Con from 24.0528 to 24.0528
Heightened Def Con from 24.0529 to 24.0529
Heightened Def Con from 24.8535 to 24.8535
Heightened Def Con from 24.8536 to 24.8536
Heightened Def Con from 25.2603 to 25.2603
Heightened Def Con from 25.2604 to 25.2604
Heightened Def Con from 25.2605 to 25.2605
Heightened Def Con from 26.4763 to 26.4763
Heightened Def Con from 26.4764 to 26.4764
Heightened Def Con from 26.4764 to 26.4764
Heightened Def Con from 28.0481 to 28.0481
Heightened Def Con from 28.0482 to 28.0482
Heightened Def Con from 28.4495 to 28.4495
Heightened Def Con from 28.4496 to 28.4496
Heightened Def Con from 28.4497 to 28.4497

Date: Fri Sep 25 15:13:54 2020
Total elapsed time: 23.829 seconds.

tnom = 27
temp = 27
method = modified trap
totiter = 415863
traniter = 415863
tranpoints = 94057
accept = 70838
rejected = 24465
matrix size = 131
fillins = 543
solver = Normal
Thread vector: 30.8/22.7[3] 16.8/10.0[3] 12.8/7.9[3] 1.2/2.0[1]  2592/500
Matrix Compiler1: 77.42 KB object code size  14.4/8.1/[2.8]
Matrix Compiler2: 20.47 KB object code size  4.9/5.4/[1.5]

