Circuit: * C:\Users\dvone\Desktop\Engineering 3.2\E-Design 344\GitRepo\E344\LTSpice\Assignment 2\von_Eschwege_21785155_A2.asc

Early termination of direct N-R iteration.
Direct Newton iteration failed to find .op point.  (Use ".option noopiter" to skip.)
Starting Gmin stepping
Gmin = 10
vernier = 0.5
vernier = 0.25
vernier = 0.125
Gmin = 5.5165
vernier = 0.0625
vernier = 0.03125
vernier = 0.015625
vernier = 0.0078125
Gmin = 5.49501
vernier = 0.00390625
vernier = 0.00195313
vernier = 0.000976563
vernier = 0.000488281
Gmin = 5.50104
Gmin = 0
Gmin stepping failed

Starting source stepping with srcstepmethod=0
Source Step = 3.0303%
Source Step = 33.3333%
Source Step = 42.4302%
Starting source stepping with srcstepmethod=1
Source Step = 3.0303%
Source stepping failed

Pseudo Transient succeeded in finding the operating point at 29.261 s.
Ignoring empty pin current: Ix(u3:1)
Ignoring empty pin current: Ix(u3:2)
Ignoring empty pin current: Ix(u8:1)
Ignoring empty pin current: Ix(u8:2)
Ignoring empty pin current: Ix(u3:1)
Ignoring empty pin current: Ix(u3:2)
Ignoring empty pin current: Ix(u8:1)
Ignoring empty pin current: Ix(u8:2)
Heightened Def Con from 1.05151 to 1.05151
Heightened Def Con from 2.0801 to 2.0801
Heightened Def Con from 3.07162 to 3.07162
Heightened Def Con from 4.0505 to 4.0505
Heightened Def Con from 5.05865 to 5.05865
Heightened Def Con from 5.05867 to 5.05867
Heightened Def Con from 9.05451 to 9.05451
Heightened Def Con from 10.0772 to 10.0772
Heightened Def Con from 12.048 to 12.048
Heightened Def Con from 12.048 to 12.048
Heightened Def Con from 13.0625 to 13.0625
Heightened Def Con from 13.0627 to 13.0627
Heightened Def Con from 14.0761 to 14.0761
Heightened Def Con from 19.0727 to 19.0727
Heightened Def Con from 20.052 to 20.052
Heightened Def Con from 20.052 to 20.052
Heightened Def Con from 21.0525 to 21.0525
Heightened Def Con from 21.0525 to 21.0525
Heightened Def Con from 23.0697 to 23.0697
Heightened Def Con from 25.0625 to 25.0625
Heightened Def Con from 27.0693 to 27.0693
Heightened Def Con from 27.0694 to 27.0694
Heightened Def Con from 27.0694 to 27.0694
Heightened Def Con from 29.0635 to 29.0635

Date: Tue Sep 22 00:31:29 2020
Total elapsed time: 32.752 seconds.

tnom = 27
temp = 27
method = modified trap
totiter = 248306
traniter = 143932
tranpoints = 61551
accept = 59104
rejected = 5088
matrix size = 135
fillins = 1615
solver = Normal
Thread vector: 67.9/49.6[3] 14.8/8.7[3] 13.6/7.4[3] 2.4/3.8[1]  2592/500
Matrix Compiler1: 300.24 KB object code size  101.6/66.6/[40.1]
Matrix Compiler2: 39.37 KB object code size  37.4/9.6/[3.7]

