Circuit: * C:\Users\dvone\Desktop\Engineering 3.2\E-Design 344\GitRepo\E344\LTSpice\Assignment 2\von_Eschwege_21785155_A2 - Copy.asc

Per .tran options, skipping operating point for transient analysis.
Ignoring empty pin current: Ix(u3:1)
Ignoring empty pin current: Ix(u3:2)
Changing Tseed to 1e-008
Changing Tseed to 1e-010
Changing Tseed to 1e-007
Changing Tseed to 1e-011
Changing Tseed to 1e-006
Changing Tseed to 1e-012
Changing Tseed to 1e-005
Changing Tseed to 1e-013
Changing Tseed to 0.0001
Changing Tseed to 1e-014
Changing Tseed to 0.001
Changing Tseed to 1e-015
Heightened Def Con from 0 Changing Tseed to 1e-009
Changing Tseed to 1e-011
Changing Tseed to 1e-008
Changing Tseed to 1e-012
Changing Tseed to 1e-007
Changing Tseed to 1e-013
Changing Tseed to 1e-006
Changing Tseed to 1e-014
Changing Tseed to 1e-005
Changing Tseed to 1e-015
Changing Tseed to 0.0001
Changing Tseed to 1e-016
+Changing Tseed to 1e-009
Changing Tseed to 1e-011
Changing Tseed to 1e-008
Changing Tseed to 1e-012
Changing Tseed to 1e-007
Changing Tseed to 1e-013
Changing Tseed to 1e-006
Changing Tseed to 1e-014
Changing Tseed to 1e-005
Changing Tseed to 1e-015
Changing Tseed to 0.0001
Changing Tseed to 1e-016
+Changing Tseed to 1e-009
Changing Tseed to 1e-011
Changing Tseed to 1e-008
Changing Tseed to 1e-012
Changing Tseed to 1e-007
Changing Tseed to 1e-013
Changing Tseed to 1e-006
Changing Tseed to 1e-014
Changing Tseed to 1e-005
Changing Tseed to 1e-015
Changing Tseed to 0.0001
Changing Tseed to 1e-016
+Changing Tseed to 1e-009
Changing Tseed to 1e-011
Changing Tseed to 1e-008
Changing Tseed to 1e-012
Changing Tseed to 1e-007
Changing Tseed to 1e-013
Changing Tseed to 1e-006
Changing Tseed to 1e-014
Changing Tseed to 1e-005
Changing Tseed to 1e-015
Changing Tseed to 0.0001
Changing Tseed to 1e-016
+Changing Tseed to 1e-009
Changing Tseed to 1e-011
Changing Tseed to 1e-008
Changing Tseed to 1e-012
Changing Tseed to 1e-007
Changing Tseed to 1e-013
Changing Tseed to 1e-006
Changing Tseed to 1e-014
Changing Tseed to 1e-005
Changing Tseed to 1e-015
Changing Tseed to 0.0001
Changing Tseed to 1e-016
+Changing Tseed to 1e-009
Changing Tseed to 1e-011
Changing Tseed to 1e-008
Changing Tseed to 1e-012
Changing Tseed to 1e-007
Changing Tseed to 1e-013
Changing Tseed to 1e-006
Changing Tseed to 1e-014
Changing Tseed to 1e-005
Changing Tseed to 1e-015
Changing Tseed to 0.0001
Changing Tseed to 1e-016
+Changing Tseed to 1e-009
Changing Tseed to 1e-011
Changing Tseed to 1e-008
Changing Tseed to 1e-012
Changing Tseed to 1e-007
Changing Tseed to 1e-013
Changing Tseed to 1e-006
Changing Tseed to 1e-014
Changing Tseed to 1e-005
Changing Tseed to 1e-015
Changing Tseed to 0.0001
Changing Tseed to 1e-016
+Changing Tseed to 1e-009
Changing Tseed to 1e-011
Changing Tseed to 1e-008
Changing Tseed to 1e-012
Changing Tseed to 1e-007
Changing Tseed to 1e-013
Changing Tseed to 1e-006
Changing Tseed to 1e-014
Changing Tseed to 1e-005
Changing Tseed to 1e-015
Changing Tseed to 0.0001
Changing Tseed to 1e-016
+Changing Tseed to 1e-009
Changing Tseed to 1e-011
Changing Tseed to 1e-008
Changing Tseed to 1e-012
Changing Tseed to 1e-007
Changing Tseed to 1e-013
Changing Tseed to 1e-006
Changing Tseed to 1e-014
Changing Tseed to 1e-005
Changing Tseed to 1e-015
Changing Tseed to 0.0001
Changing Tseed to 1e-016
+Changing Tseed to 1e-009
Changing Tseed to 1e-011
Changing Tseed to 1e-008
Changing Tseed to 1e-012
Changing Tseed to 1e-007
Changing Tseed to 1e-013
Changing Tseed to 1e-006
Changing Tseed to 1e-014
Changing Tseed to 1e-005
Changing Tseed to 1e-015
Changing Tseed to 0.0001
Changing Tseed to 1e-016
+Changing Tseed to 1e-009
Changing Tseed to 1e-011
Changing Tseed to 1e-008
Changing Tseed to 1e-012
Changing Tseed to 1e-007
Changing Tseed to 1e-013
Changing Tseed to 1e-006
Changing Tseed to 1e-014
Changing Tseed to 1e-005
Changing Tseed to 1e-015
Changing Tseed to 0.0001
Changing Tseed to 1e-016
+Changing Tseed to 1e-009
Changing Tseed to 1e-011
Changing Tseed to 1e-008
Changing Tseed to 1e-012
Changing Tseed to 1e-007
Changing Tseed to 1e-013
Changing Tseed to 1e-006
Changing Tseed to 1e-014
Changing Tseed to 1e-005
Changing Tseed to 1e-015
Changing Tseed to 0.0001
Changing Tseed to 1e-016
+Changing Tseed to 1e-009
Changing Tseed to 1e-011
Changing Tseed to 1e-008
Changing Tseed to 1e-012
Changing Tseed to 1e-007
Changing Tseed to 1e-013
Changing Tseed to 1e-006
Changing Tseed to 1e-014
Changing Tseed to 1e-005
Changing Tseed to 1e-015
Changing Tseed to 0.0001
Changing Tseed to 1e-016
+Changing Tseed to 1e-009
Changing Tseed to 1e-011
Changing Tseed to 1e-008
Changing Tseed to 1e-012
Changing Tseed to 1e-007
Changing Tseed to 1e-013
Changing Tseed to 1e-006
Changing Tseed to 1e-014
Changing Tseed to 1e-005
Changing Tseed to 1e-015
Changing Tseed to 0.0001
Changing Tseed to 1e-016
+Changing Tseed to 1e-009
Changing Tseed to 1e-011
Changing Tseed to 1e-008
Changing Tseed to 1e-012
Changing Tseed to 1e-007
Changing Tseed to 1e-013
Changing Tseed to 1e-006
Changing Tseed to 1e-014
Changing Tseed to 1e-005
Changing Tseed to 1e-015
Changing Tseed to 0.0001
Changing Tseed to 1e-016
+Changing Tseed to 1e-009
Changing Tseed to 1e-011
Changing Tseed to 1e-008
Changing Tseed to 1e-012
Changing Tseed to 1e-007
Changing Tseed to 1e-013
Changing Tseed to 1e-006
Changing Tseed to 1e-014
Changing Tseed to 1e-005
Changing Tseed to 1e-015
Changing Tseed to 0.0001
Changing Tseed to 1e-016
+Changing Tseed to 1e-009
Changing Tseed to 1e-011
Changing Tseed to 1e-008
Changing Tseed to 1e-012
Changing Tseed to 1e-007
Changing Tseed to 1e-013
Changing Tseed to 1e-006
Changing Tseed to 1e-014
Changing Tseed to 1e-005
Changing Tseed to 1e-015
Changing Tseed to 0.0001
Changing Tseed to 1e-016
+Changing Tseed to 1e-009
Changing Tseed to 1e-011
Changing Tseed to 1e-008
Changing Tseed to 1e-012
Changing Tseed to 1e-007
Changing Tseed to 1e-013
Changing Tseed to 1e-006
Changing Tseed to 1e-014
Changing Tseed to 1e-005
Changing Tseed to 1e-015
Changing Tseed to 0.0001
Changing Tseed to 1e-016
+Changing Tseed to 1e-009
Changing Tseed to 1e-011
Changing Tseed to 1e-008
Changing Tseed to 1e-012
Changing Tseed to 1e-007
Changing Tseed to 1e-013
Changing Tseed to 1e-006
Changing Tseed to 1e-014
Changing Tseed to 1e-005
Changing Tseed to 1e-015
Changing Tseed to 0.0001
Changing Tseed to 1e-016
+Changing Tseed to 1e-009
Changing Tseed to 1e-011
Changing Tseed to 1e-008
Changing Tseed to 1e-012
Changing Tseed to 1e-007
Changing Tseed to 1e-013
Changing Tseed to 1e-006
Changing Tseed to 1e-014
Changing Tseed to 1e-005
Changing Tseed to 1e-015
Changing Tseed to 0.0001
Changing Tseed to 1e-016
+Changing Tseed to 1e-009
Changing Tseed to 1e-011
Changing Tseed to 1e-008
Changing Tseed to 1e-012
Changing Tseed to 1e-007
Changing Tseed to 1e-013
Changing Tseed to 1e-006
Changing Tseed to 1e-014
Changing Tseed to 1e-005
Changing Tseed to 1e-015
Changing Tseed to 0.0001
Changing Tseed to 1e-016
+Changing Tseed to 1e-009
Changing Tseed to 1e-011
Changing Tseed to 1e-008
Changing Tseed to 1e-012
Changing Tseed to 1e-007
Changing Tseed to 1e-013
Changing Tseed to 1e-006
Changing Tseed to 1e-014
Changing Tseed to 1e-005
Changing Tseed to 1e-015
Changing Tseed to 0.0001
Changing Tseed to 1e-016
+Changing Tseed to 1e-009
Changing Tseed to 1e-011
Changing Tseed to 1e-008
Changing Tseed to 1e-012
Changing Tseed to 1e-007
Changing Tseed to 1e-013
Changing Tseed to 1e-006
Changing Tseed to 1e-014
Changing Tseed to 1e-005
Changing Tseed to 1e-015
Changing Tseed to 0.0001
Changing Tseed to 1e-016
+Changing Tseed to 1e-009
Changing Tseed to 1e-011
Changing Tseed to 1e-008
Changing Tseed to 1e-012
Changing Tseed to 1e-007
Changing Tseed to 1e-013
Changing Tseed to 1e-006
Changing Tseed to 1e-014
Changing Tseed to 1e-005
Changing Tseed to 1e-015
Changing Tseed to 0.0001
Changing Tseed to 1e-016
+Changing Tseed to 1e-009
Changing Tseed to 1e-011
Changing Tseed to 1e-008
Changing Tseed to 1e-012
Changing Tseed to 1e-007
Changing Tseed to 1e-013
Changing Tseed to 1e-006
Changing Tseed to 1e-014
Changing Tseed to 1e-005
Changing Tseed to 1e-015
Changing Tseed to 0.0001
Changing Tseed to 1e-016
+Changing Tseed to 1e-009
Changing Tseed to 1e-011
Changing Tseed to 1e-008
Changing Tseed to 1e-012
Changing Tseed to 1e-007
Changing Tseed to 1e-013
Changing Tseed to 1e-006
Changing Tseed to 1e-014
Changing Tseed to 1e-005
Changing Tseed to 1e-015
Changing Tseed to 0.0001
Changing Tseed to 1e-016
+Changing Tseed to 1e-009
Changing Tseed to 1e-011
Changing Tseed to 1e-008
Changing Tseed to 1e-012
Changing Tseed to 1e-007
Changing Tseed to 1e-013
Changing Tseed to 1e-006
Changing Tseed to 1e-014
Changing Tseed to 1e-005
Changing Tseed to 1e-015
Changing Tseed to 0.0001
Changing Tseed to 1e-016
+Changing Tseed to 1e-009
Changing Tseed to 1e-011
Changing Tseed to 1e-008
Changing Tseed to 1e-012
Changing Tseed to 1e-007
Changing Tseed to 1e-013
Changing Tseed to 1e-006
Changing Tseed to 1e-014
Changing Tseed to 1e-005
Changing Tseed to 1e-015
Changing Tseed to 0.0001
Changing Tseed to 1e-016
+Changing Tseed to 1e-009
Changing Tseed to 1e-011
Changing Tseed to 1e-008
Changing Tseed to 1e-012
Changing Tseed to 1e-007
Changing Tseed to 1e-013
Changing Tseed to 1e-006
Changing Tseed to 1e-014
Changing Tseed to 1e-005
Changing Tseed to 1e-015
Changing Tseed to 0.0001
Changing Tseed to 1e-016
+Changing Tseed to 1e-009
Changing Tseed to 1e-011
Changing Tseed to 1e-008
Changing Tseed to 1e-012
Changing Tseed to 1e-007
Changing Tseed to 1e-013
Changing Tseed to 1e-006
Changing Tseed to 1e-014
Changing Tseed to 1e-005
Changing Tseed to 1e-015
Changing Tseed to 0.0001
Changing Tseed to 1e-016
+Changing Tseed to 1e-009
Changing Tseed to 1e-011
Changing Tseed to 1e-008
Changing Tseed to 1e-012
Changing Tseed to 1e-007
Changing Tseed to 1e-013
Changing Tseed to 1e-006
Changing Tseed to 1e-014
Changing Tseed to 1e-005
Changing Tseed to 1e-015
Changing Tseed to 0.0001
Changing Tseed to 1e-016
+Changing Tseed to 1e-009
Changing Tseed to 1e-011
Changing Tseed to 1e-008
Changing Tseed to 1e-012
Changing Tseed to 1e-007
Changing Tseed to 1e-013
Changing Tseed to 1e-006
Changing Tseed to 1e-014
Changing Tseed to 1e-005
Changing Tseed to 1e-015
Changing Tseed to 0.0001
Changing Tseed to 1e-016
+Changing Tseed to 1e-009
Changing Tseed to 1e-011
Changing Tseed to 1e-008
Changing Tseed to 1e-012
Changing Tseed to 1e-007
Changing Tseed to 1e-013
Changing Tseed to 1e-006
Changing Tseed to 1e-014
Changing Tseed to 1e-005
Changing Tseed to 1e-015
Changing Tseed to 0.0001
Changing Tseed to 1e-016
+Changing Tseed to 1e-009
Changing Tseed to 1e-011
Changing Tseed to 1e-008
Changing Tseed to 1e-012
Changing Tseed to 1e-007
Changing Tseed to 1e-013
Changing Tseed to 1e-006
Changing Tseed to 1e-014
Changing Tseed to 1e-005
Changing Tseed to 1e-015
Changing Tseed to 0.0001
Changing Tseed to 1e-016
+Changing Tseed to 1e-009
Changing Tseed to 1e-011
Changing Tseed to 1e-008
Changing Tseed to 1e-012
Changing Tseed to 1e-007
Changing Tseed to 1e-013
Changing Tseed to 1e-006
Changing Tseed to 1e-014
Changing Tseed to 1e-005
Changing Tseed to 1e-015
Changing Tseed to 0.0001
Changing Tseed to 1e-016
+Changing Tseed to 1e-009
Changing Tseed to 1e-011
Changing Tseed to 1e-008
Changing Tseed to 1e-012
Changing Tseed to 1e-007
Changing Tseed to 1e-013
Changing Tseed to 1e-006
Changing Tseed to 1e-014
Changing Tseed to 1e-005
Changing Tseed to 1e-015
Changing Tseed to 0.0001
Changing Tseed to 1e-016
+Changing Tseed to 1e-009
Changing Tseed to 1e-011
Changing Tseed to 1e-008
Changing Tseed to 1e-012
Changing Tseed to 1e-007
Changing Tseed to 1e-013
Changing Tseed to 1e-006
Changing Tseed to 1e-014
Changing Tseed to 1e-005
Changing Tseed to 1e-015
Changing Tseed to 0.0001
Changing Tseed to 1e-016
+Changing Tseed to 1e-009
Changing Tseed to 1e-011
Changing Tseed to 1e-008
Changing Tseed to 1e-012
Changing Tseed to 1e-007
Changing Tseed to 1e-013
Changing Tseed to 1e-006
Changing Tseed to 1e-014
Changing Tseed to 1e-005
Changing Tseed to 1e-015
Changing Tseed to 0.0001
Changing Tseed to 1e-016
+Changing Tseed to 1e-009
Changing Tseed to 1e-011
Changing Tseed to 1e-008
Changing Tseed to 1e-012
Changing Tseed to 1e-007
Changing Tseed to 1e-013
Changing Tseed to 1e-006
Changing Tseed to 1e-014
Changing Tseed to 1e-005
Changing Tseed to 1e-015
Changing Tseed to 0.0001
Changing Tseed to 1e-016
+Changing Tseed to 1e-009
Changing Tseed to 1e-011
Changing Tseed to 1e-008
Changing Tseed to 1e-012
Changing Tseed to 1e-007
Changing Tseed to 1e-013
Changing Tseed to 1e-006
Changing Tseed to 1e-014
Changing Tseed to 1e-005
Changing Tseed to 1e-015
Changing Tseed to 0.0001
Changing Tseed to 1e-016
+Changing Tseed to 1e-009
Changing Tseed to 1e-011
Changing Tseed to 1e-008
Changing Tseed to 1e-012
Changing Tseed to 1e-007
Changing Tseed to 1e-013
Changing Tseed to 1e-006
Changing Tseed to 1e-014
Changing Tseed to 1e-005
Changing Tseed to 1e-015
Changing Tseed to 0.0001
Changing Tseed to 1e-016
to 7.25e-018
Heightened Def Con from 7.25e-018 ++++++++++++++++++++++++++++++++to 1.225e-017
Heightened Def Con from 1.225e-017 +++++++++++++++++++++++to 3.56017e-017
Heightened Def Con from 3.56017e-017 ++++++++++++++++++++++++++++++++++to 6.64041e-017
Heightened Def Con from 6.64041e-017 ++++++++++++++++++++++to 6.74041e-017
Heightened Def Con from 6.74041e-017 ++++++++++++++++++++to 6.84041e-017
Heightened Def Con from 6.84041e-017 ++++++++++++++++++++++++++to 5.46241e-016
Heightened Def Con from 5.46241e-016 ++++++++++++++++++++++++++to 5.53692e-016
Heightened Def Con from 5.53692e-016 ++++++++++++++++++++++++to 4.37584e-015
Heightened Def Con from 4.37584e-015 ++++++++++++++++to 4.38329e-015
Heightened Def Con from 4.38329e-015 +++++++++++++++++++++to 5.33796e-015
Heightened Def Con from 5.33796e-015 ++++++++++++++++++++++to 5.33896e-015
Heightened Def Con from 5.33896e-015 ++++++++++++++++++to 5.34642e-015
Heightened Def Con from 5.34642e-015 +++++++++++++++++++++++++++to 5.40602e-015
Heightened Def Con from 5.40602e-015 +++++++++++++++++++++++to 9.22172e-015
Heightened Def Con from 9.22172e-015 ++++++++++++++++++++to 9.22917e-015
Heightened Def Con from 9.22917e-015 ++++++++++++++++++++++to 9.28877e-015
Heightened Def Con from 9.28877e-015 +++++++++++++++++++to 9.29622e-015
Heightened Def Con from 9.29622e-015 ++++++++++++++++++++++to 9.35583e-015
Heightened Def Con from 9.35583e-015 +++++++++++++++++++++++to 9.89227e-015
Heightened Def Con from 9.89227e-015 +++++++++++++++++++++to 1.37144e-014
Heightened Def Con from 1.37144e-014 +++++++++++++++++++++++to 4.47163e-014
Heightened Def Con from 4.47163e-014 ++++++++++++++++++++to 4.47173e-014
Heightened Def Con from 4.47173e-014 +to 4.47183e-014
Heightened Def Con from 4.47183e-014 ++++++++++++++++++++to 4.47257e-014
Heightened Def Con from 4.47257e-014 ++++++++++++++++++++to 7.52443e-014
Heightened Def Con from 7.52443e-014 +++++++++++++++to 7.53039e-014
Heightened Def Con from 7.53039e-014 +++++++++++++++++to 7.53049e-014
Heightened Def Con from 7.53049e-014 ++++++++++++++++++++++to 7.57818e-014
Heightened Def Con from 7.57818e-014 +++++++++++++++to 7.57892e-014
Heightened Def Con from 7.57892e-014 ++++++++++++++++to 7.57967e-014
Heightened Def Con from 7.57967e-014 ++++++++++++++++++++++++to 8.00882e-014
Heightened Def Con from 8.00882e-014 ++++++++to 8.0565e-014
Heightened Def Con from 8.0565e-014 ++++++++++++++++++++++++to 1.4166e-013
Heightened Def Con from 1.4166e-013 +++++++++++++++++++to 2.09861e-012
Heightened Def Con from 2.09861e-012 ++++++++++++++++++++to 2.09867e-012
Heightened Def Con from 2.09867e-012 +++++++++++++++++++to 2.09873e-012
Heightened Def Con from 2.09873e-012 ++to 2.0992e-012
Heightened Def Con from 2.0992e-012 +++++++++++++++++++to 2.10302e-012
Heightened Def Con from 2.10302e-012 +++to 2.10349e-012
Heightened Def Con from 2.10349e-012 +++++++++++++++to 2.1035e-012
Heightened Def Con from 2.1035e-012 +++++++++++++++++++to 2.10351e-012
Heightened Def Con from 2.10351e-012 ++++++++++++++++++++to 2.10357e-012
Heightened Def Con from 2.10357e-012 +to 2.10363e-012
Heightened Def Con from 2.10363e-012 ++++++++++++++++++++to 2.10363e-012
Heightened Def Con from 2.10363e-012 +++++++++++++++++++to 2.10364e-012
Heightened Def Con from 2.10364e-012 +++++++++++to 2.1037e-012
Heightened Def Con from 2.1037e-012 ++++++++++++++++++to 2.10376e-012
Heightened Def Con from 2.10376e-012 ++++++++++++++++++++to 2.10382e-012
Heightened Def Con from 2.10382e-012 ++++++++++++++++++++to 2.10388e-012
Heightened Def Con from 2.10388e-012 +++++++++++++++++++++to 2.10769e-012
Heightened Def Con from 2.10769e-012 ++++++++++to 2.1077e-012
Heightened Def Con from 2.1077e-012 ++++++++++++++++++++to 2.1077e-012
Heightened Def Con from 2.1077e-012 +++++++++++++++++to 2.10818e-012
Heightened Def Con from 2.10818e-012 +++++++++++++++++++++to 2.10818e-012
Heightened Def Con from 2.10818e-012 +++++++++to 2.13869e-012
Heightened Def Con from 2.13869e-012 ++++++++++++to 2.1387e-012
Heightened Def Con from 2.1387e-012 ++++++++++++++++++to 2.1387e-012
Heightened Def Con from 2.1387e-012 ++++++++++++++++++to 2.13918e-012
Heightened Def Con from 2.13918e-012 ++++++++++++++++++to 2.13966e-012
Heightened Def Con from 2.13966e-012 ++++++++++++++++++++to 2.13972e-012
Heightened Def Con from 2.13972e-012 ++++++++++to 4.09285e-012
Heightened Def Con from 4.09285e-012 +++++++++++++++++++to 4.09333e-012
Heightened Def Con from 4.09333e-012 +++++++++++++++++to 4.09338e-012
Heightened Def Con from 4.09338e-012 +++++++++++++++++++to 4.0972e-012
Heightened Def Con from 4.0972e-012 +++++++++++++++++to 4.0972e-012
Heightened Def Con from 4.0972e-012 ++++++++++++++++++++to 4.10102e-012
Heightened Def Con from 4.10102e-012 +++++++++++++++++++++++to 4.10107e-012
Heightened Def Con from 4.10107e-012 +++++++++++++++++++++to 4.10113e-012
Heightened Def Con from 4.10113e-012 +++++++++++++++++++to 4.10114e-012
Heightened Def Con from 4.10114e-012 ++++++++++++++++++to 4.10162e-012
Heightened Def Con from 4.10162e-012 +++++++++++++++++++to 4.13214e-012
Heightened Def Con from 4.13214e-012 +++++++++++++++++++to 4.13261e-012
Heightened Def Con from 4.13261e-012 +++++++++++++++to 4.13267e-012
Heightened Def Con from 4.13267e-012 ++++++++++++++++to 4.13273e-012
Heightened Def Con from 4.13273e-012 +++++++++++++++++++to 4.13279e-012
Heightened Def Con from 4.13279e-012 ++++++++++++++++++++to 4.13285e-012
Heightened Def Con from 4.13285e-012 ++++++++++++++++++++to 4.13333e-012
Heightened Def Con from 4.13333e-012 ++++++++++++++++++to 4.13339e-012
Heightened Def Con from 4.13339e-012 +++++++++++++++++++to 8.07016e-012
Heightened Def Con from 8.07016e-012 +++++++++++++++++to 8.07022e-012
Heightened Def Con from 8.07022e-012 ++++++++++++++++++++to 8.07027e-012
Heightened Def Con from 8.07027e-012 +++++++++++to 8.07033e-012
Heightened Def Con from 8.07033e-012 ++++++++++++++++++to 8.07415e-012
Heightened Def Con from 8.07415e-012 +++++++++++++++++to 8.07421e-012
Heightened Def Con from 8.07421e-012 +++++++++++++++++++to 8.07469e-012
Heightened Def Con from 8.07469e-012 +++++++++++++++to 8.07474e-012
Heightened Def Con from 8.07474e-012 +++++++to 8.07475e-012
Heightened Def Con from 8.07475e-012 +++++++to 8.07523e-012
Heightened Def Con from 8.07523e-012 +to 8.07524e-012
Heightened Def Con from 8.07524e-012 +++++++++++to 8.07571e-012
Heightened Def Con from 8.07571e-012 +++++++++++++to 8.07577e-012
Heightened Def Con from 8.07577e-012 ++++++++++++to 8.07625e-012
Heightened Def Con from 8.07625e-012 ++++++++++++++++++to 8.10677e-012
Heightened Def Con from 8.10677e-012 +++++++++++++to 8.13729e-012
Heightened Def Con from 8.13729e-012 +++++++++++++++to 8.13729e-012
Heightened Def Con from 8.13729e-012 ++++++++++++++++++to 8.1373e-012
Heightened Def Con from 8.1373e-012 +++++++++to 8.13731e-012
Heightened Def Con from 8.13731e-012 ++++++++++++++++to 8.13737e-012
Heightened Def Con from 8.13737e-012 to 8.13737e-012
Heightened Def Con from 8.13737e-012 ++++++++++++to 1.13338e-009
Heightened Def Con from 1.13338e-009 ++++to 1.13338e-009
Heightened Def Con from 1.13338e-009 to 1.13338e-009
Heightened Def Con from 1.13338e-009 +to 1.13341e-009
Heightened Def Con from 1.13341e-009 +to 1.13341e-009
Heightened Def Con from 1.13341e-009 +to 1.13341e-009
Heightened Def Con from 1.13341e-009 ++to 1.13344e-009
Heightened Def Con from 1.13344e-009 +to 1.1354e-009
Heightened Def Con from 1.1354e-009 ++++++++++++++++++to 1.13543e-009
Heightened Def Con from 1.13543e-009 ++++++++++++++++++to 1.13738e-009
Heightened Def Con from 1.13738e-009 ++++++++++to 1.153e-009
Heightened Def Con from 1.153e-009 ++++++++to 1.15301e-009
Heightened Def Con from 1.15301e-009 +to 1.15301e-009
Heightened Def Con from 1.15301e-009 +++++++to 1.16863e-009
Heightened Def Con from 1.16863e-009 to 1.16863e-009
Heightened Def Con from 1.16863e-009 ++++++++++++++to 1.16866e-009
Heightened Def Con from 1.16866e-009 ++++to 1.16866e-009
Heightened Def Con from 1.16866e-009 to 1.16866e-009
Heightened Def Con from 1.16866e-009 +to 1.16867e-009
Heightened Def Con from 1.16867e-009 +to 1.16867e-009
Heightened Def Con from 1.16867e-009 ++to 1.16867e-009
Heightened Def Con from 1.16867e-009 ++++++to 1.16867e-009
Heightened Def Con from 1.16867e-009 +++to 2.16868e-009
Heightened Def Con from 2.16868e-009 to 2.16868e-009
Heightened Def Con from 2.16868e-009 +to 2.16868e-009
Heightened Def Con from 2.16868e-009 +to 2.16868e-009
Heightened Def Con from 2.16868e-009 to 2.16868e-009
Heightened Def Con from 2.16868e-009 +to 2.16868e-009
Heightened Def Con from 2.16868e-009 +++++to 3.29368e-009
Heightened Def Con from 3.29368e-009 to 3.41868e-009
Heightened Def Con from 3.41868e-009 +to 3.41895e-009
Heightened Def Con from 3.41895e-009 ++to 3.41895e-009
Heightened Def Con from 3.41895e-009 to 3.41896e-009
Heightened Def Con from 3.41896e-009 +to 3.4192e-009
Heightened Def Con from 3.4192e-009 to 3.4192e-009
Heightened Def Con from 3.4192e-009 +to 3.41923e-009
Heightened Def Con from 3.41923e-009 to 3.41923e-009
Heightened Def Con from 3.41923e-009 +to 3.41927e-009
Heightened Def Con from 3.41927e-009 to 3.42125e-009
Heightened Def Con from 3.42125e-009 to 3.42128e-009
Heightened Def Con from 3.42128e-009 to 3.42131e-009
Heightened Def Con from 3.42132e-009 to 3.42132e-009
Heightened Def Con from 3.42132e-009 +++to 4.42132e-009
Heightened Def Con from 4.42132e-009 +to 5.54632e-009
Heightened Def Con from 5.54632e-009 +to 5.56389e-009
Heightened Def Con from 5.5639e-009 to 5.81415e-009
Heightened Def Con from 5.81464e-009 to 6.93964e-009
Heightened Def Con from 6.97885e-009 to 9.97885e-009
Heightened Def Con from 1.124 to 1.124
Heightened Def Con from 2.06525 to 2.06525
Heightened Def Con from 3.052 to 3.052
Heightened Def Con from 3.05203 to 3.05203
Heightened Def Con from 4.3004 +++to 4.3004
Heightened Def Con from 4.3004 to 4.3004
Heightened Def Con from 6.0641 to 6.0641
Heightened Def Con from 6.06423 to 6.06423
Heightened Def Con from 6.06426 to 6.06426
Heightened Def Con from 8.30613 +to 8.30613
Heightened Def Con from 8.30613 +to 8.30613
Heightened Def Con from 10.0608 to 10.0608
Heightened Def Con from 11.0443 to 11.0443
Heightened Def Con from 11.0446 to 11.0446
Heightened Def Con from 11.0446 to 11.0446
Heightened Def Con from 12.0289 to 12.0289
Heightened Def Con from 12.029 to 12.029
Heightened Def Con from 16.3082 to 16.3082
Heightened Def Con from 16.3082 to 16.3082
Heightened Def Con from 16.3082 +to 16.3082
Heightened Def Con from 18.0603 to 18.0603
Heightened Def Con from 18.0606 to 18.0606
Heightened Def Con from 22.0531 to 22.0531
Heightened Def Con from 22.0533 to 22.0533
Heightened Def Con from 22.0533 to 22.0533
Heightened Def Con from 24.0331 to 24.0331
Heightened Def Con from 24.0333 to 24.0333
Heightened Def Con from 26.0535 to 26.0535
Heightened Def Con from 26.0546 to 26.0546
Heightened Def Con from 28.3057 to 28.3057
Heightened Def Con from 29.0395 to 29.0395
Heightened Def Con from 29.0396 to 29.0396

Date: Thu Sep 24 14:59:38 2020
Total elapsed time: 26.155 seconds.

tnom = 27
temp = 27
method = modified trap
totiter = 400157
traniter = 400157
tranpoints = 84945
accept = 61597
rejected = 24924
matrix size = 131
fillins = 543
solver = Normal
Thread vector: 52.1/24.7[3] 18.2/9.4[3] 13.2/8.7[3] 1.8/11.5[1]  2592/500
Matrix Compiler1: 77.42 KB object code size  11.9/4648.9/[4.3]
Matrix Compiler2: 20.47 KB object code size  5.0/9.5/[2.2]

