Circuit: * C:\Users\dvone\Desktop\Engineering 3.2\E-Design 344\GitRepo\E344\LTSpice\Assignment 2\von_Eschwege_21785155_A2.asc

WARNING: Node NC_01 is floating.

WARNING: Less than two connections to node NC_01.  This node is used by R7.
WARNING: Less than two connections to node NC_02.  This node is used by V5.
Early termination of direct N-R iteration.
Direct Newton iteration failed to find .op point.  (Use ".option noopiter" to skip.)
Starting Gmin stepping
Gmin = 10
vernier = 0.5
vernier = 0.25
vernier = 0.125
Gmin = 5.5165
vernier = 0.0625
vernier = 0.03125
vernier = 0.015625
vernier = 0.0078125
Gmin = 5.49501
vernier = 0.00390625
vernier = 0.00195313
vernier = 0.000976563
vernier = 0.000488281
Gmin = 5.50104
Gmin = 0
Gmin stepping failed

Starting source stepping with srcstepmethod=0
Source Step = 3.0303%
vernier = 0.25
Source Step = 7.57576%
Source Step = 15.1515%
Source Step = 22.7273%
Source Step = 30.303%
Source Step = 37.8788%
vernier = 0.375
Source Step = 44.3359%
vernier = 0.00146484
Source Step = 44.3626%
Source Step = 44.407%
Source Step = 44.4513%
Source Step = 44.4957%
Source Step = 44.5401%
vernier = 0.00219727
Source Step = 44.5934%
Source Step = 44.66%
Source Step = 44.7266%
Source Step = 44.7931%
Source Step = 44.8597%
vernier = 0.0032959
Source Step = 44.9363%
Source Step = 45.0362%
Source Step = 45.1361%
Source Step = 45.2359%
Source Step = 45.3358%
vernier = 0.00494385
Source Step = 45.4457%
Source Step = 45.5955%
Source Step = 45.7453%
Source Step = 45.8951%
Source Step = 46.0449%
vernier = 0.00741577
Source Step = 46.2022%
Source Step = 46.4269%
Source Step = 46.6517%
Source Step = 46.8764%
Source Step = 47.1011%
Source Step = 47.3258%
vernier = 0.0111237
Source Step = 47.6629%
Source Step = 48%
Source Step = 48.3371%
Source Step = 48.6741%
Source Step = 49.0112%
vernier = 0.0166855
Source Step = 49.5%
Source Step = 50.0056%
Source Step = 50.5112%
Source Step = 51.0169%
Source Step = 51.5225%
vernier = 0.0250282
Source Step = 52.2303%
Source Step = 52.9888%
Source Step = 53.7472%
Source Step = 54.5056%
Source Step = 55.2641%
vernier = 0.0375423
Source Step = 56.288%
Source Step = 57.4256%
Source Step = 58.5632%
Source Step = 59.7009%
Source Step = 60.8385%
vernier = 0.0563135
Source Step = 62.3175%
Source Step = 64.024%
Source Step = 65.7304%
Source Step = 67.4369%
Source Step = 69.1434%
vernier = 0.0844703
Source Step = 71.2765%
Source Step = 73.8362%
Source Step = 76.3959%
Source Step = 78.9556%
Source Step = 81.5153%
vernier = 0.126705
Source Step = 84.5869%
Source Step = 88.4265%
Source Step = 92.266%
Source Step = 92.686%
Source Step = 92.746%
Source Step = 92.806%
Source Step = 92.866%
Source Step = 92.926%
Source Step = 92.986%
Source Step = 93.0459%
Source Step = 93.1059%
Source Step = 93.1659%
Source Step = 93.2259%
Source Step = 93.2859%
Source Step = 93.3459%
Source Step = 93.4059%
Source Step = 93.4659%
Source Step = 93.5259%
Source Step = 93.5859%
Source Step = 93.6459%
Starting source stepping with srcstepmethod=1
Source Step = 3.0303%
Source Step = 14.2045%
Source Step = 14.5123%
vernier = 0.000976563
Source stepping failed

Pseudo transient terminated at 102.917 s, solution accepted ready or not!

Date: Sat Aug 29 20:31:46 2020
Total elapsed time: 39.682 seconds.

tnom = 27
temp = 27
method = modified trap
totiter = 213731
traniter = 105028
tranpoints = 52515
accept = 52515
rejected = 2421
matrix size = 218
fillins = 925
solver = Normal
Thread vector: 54.5/31.6[4] 18.6/7.3[4] 24.9/14.3[4] 3.2/178.2[1]  2592/500
Matrix Compiler1: 115.46 KB object code size  51.5/29.3/[17.7]
Matrix Compiler2: 34.15 KB object code size  10.6/9.7/[4.8]

