Circuit: * C:\Users\dvone\Desktop\Engineering 3.2\E-Design 344\GitRepo\E344\LTSpice\Assignment 2\X_1stOrderFilter .asc

WARNING: Less than two connections to node NC_01.  This node is used by V5.
Early termination of direct N-R iteration.
Direct Newton iteration failed to find .op point.  (Use ".option noopiter" to skip.)
Starting Gmin stepping
Gmin = 10
vernier = 0.5
vernier = 0.25
vernier = 0.125
Gmin = 5.5165
vernier = 0.0625
vernier = 0.03125
vernier = 0.015625
vernier = 0.0078125
Gmin = 5.49501
vernier = 0.00390625
vernier = 0.00195313
vernier = 0.000976563
vernier = 0.000488281
Gmin = 5.50104
Gmin = 0
Gmin stepping failed

Starting source stepping with srcstepmethod=0
Source Step = 3.0303%
vernier = 0.25
Source Step = 7.57576%
Source Step = 15.1515%
Source Step = 22.7273%
Source Step = 30.303%
vernier = 0.0625
Source Step = 29.5662%
Source Step = 29.5958%
Source Step = 29.6254%
Source Step = 29.6549%
Source Step = 29.6845%
Source Step = 29.7141%
vernier = 0.00146484
Source Step = 29.7585%
Source Step = 29.8029%
Source Step = 29.8473%
Source Step = 29.8917%
Source Step = 29.9361%
vernier = 0.00219727
Source Step = 30.0004%
Source Step = 30.067%
Source Step = 30.1336%
Source Step = 30.2002%
Source Step = 30.2668%
vernier = 0.0032959
Source Step = 30.36%
Source Step = 30.4599%
Source Step = 30.5597%
Source Step = 30.6596%
Source Step = 30.7595%
vernier = 0.00494385
Source Step = 30.8943%
Source Step = 31.0441%
Source Step = 31.194%
Source Step = 31.3438%
Source Step = 31.4936%
vernier = 0.00741577
Source Step = 31.6883%
Source Step = 31.9131%
Source Step = 32.1378%
Source Step = 32.3625%
Source Step = 32.5872%
vernier = 0.0111237
Source Step = 32.8681%
Source Step = 33.2052%
Source Step = 33.5423%
Source Step = 33.8794%
Source Step = 34.2164%
vernier = 0.0166855
Source Step = 34.6209%
Source Step = 35.1266%
Source Step = 35.6322%
Source Step = 36.1378%
Source Step = 36.6434%
vernier = 0.0250282
Source Step = 37.2249%
Source Step = 37.9833%
Source Step = 38.7418%
Source Step = 39.5002%
Source Step = 40.2586%
vernier = 0.0375423
Source Step = 41.0929%
Source Step = 42.2305%
Source Step = 43.3682%
Source Step = 44.5058%
Source Step = 45.6435%
vernier = 0.0563135
Source Step = 46.838%
Source Step = 48.5445%
Source Step = 50.2509%
Source Step = 51.9574%
Source Step = 53.6639%
Source Step = 55.3704%
vernier = 0.0844703
Source Step = 57.9301%
Source Step = 60.4898%
Source Step = 63.0495%
Source Step = 65.6092%
Source Step = 68.1689%
vernier = 0.126705
Source Step = 71.8805%
Source Step = 75.72%
Source Step = 79.5596%
Source Step = 83.3991%
Source Step = 87.2387%
vernier = 0.190058
Source Step = 92.6141%
Source Step = 98.3734%
vernier = 0.0475145
Source Step = 97.8695%
Starting source stepping with srcstepmethod=1
Source Step = 3.0303%
Source Step = 3.78788%
vernier = 0.00390625
Source stepping failed

Pseudo transient terminated at 102.903 s, solution accepted ready or not!
Heightened Def Con from 0.00256072 to 0.00256072
Heightened Def Con from 0.2609 to 0.2609
Heightened Def Con from 0.41375 to 0.41375
Heightened Def Con from 0.80975 to 0.80975
Heightened Def Con from 0.809881 to 0.809881
Heightened Def Con from 1.20742 to 1.20742
Heightened Def Con from 1.61419 +++++++++++++++++++++++++++++++to 1.61419
Heightened Def Con from 2.0225 to 2.0225
Heightened Def Con from 2.02302 +++++++++++++++++++++++++++++++to 2.02302
Heightened Def Con from 2.20306 to 2.20306
Heightened Def Con from 2.20333 to 2.20333
Heightened Def Con from 2.4327 to 2.4327
Heightened Def Con from 2.43322 +++++++++++++++++++++++++++++++to 2.43322
Heightened Def Con from 2.84915 to 2.84915
Heightened Def Con from 2.84942 to 2.84942
Heightened Def Con from 2.9675 +++++++++++++++++++++++++++++++to 2.9675
Heightened Def Con from 3.2475 +++++++++++++++++++++++++++++++to 3.2475
Heightened Def Con from 3.24777 to 3.24777
Heightened Def Con from 3.3527 to 3.3527
Heightened Def Con from 3.35322 +++++++++++++++++++++++++++++++to 3.35322
Heightened Def Con from 3.639 +++++++++++++++++++++++++++++++to 3.639
Heightened Def Con from 3.8007 to 3.8007
Heightened Def Con from 4.0207 to 4.0207
Heightened Def Con from 4.02096 to 4.02096
Heightened Def Con from 4.02109 to 4.02109
Heightened Def Con from 4.2635 +++++++++++++++++++++++++++++++to 4.2635
Heightened Def Con from 4.4167 to 4.4167
Heightened Def Con from 4.41696 to 4.41696
Heightened Def Con from 4.8115 to 4.8115
Heightened Def Con from 4.81176 to 4.81176
Heightened Def Con from 5.2087 to 5.2087
Heightened Def Con from 5.20896 to 5.20896
Heightened Def Con from 5.20909 to 5.20909
Heightened Def Con from 5.61515 +++++++++++++++++++++++++++++++to 5.61515
Heightened Def Con from 6.0215 to 6.0215
Heightened Def Con from 6.02202 +++++++++++++++++++++++++++++++to 6.02202
Heightened Def Con from 6.20577 to 6.20577
Heightened Def Con from 6.4323 to 6.4323
Heightened Def Con from 6.43256 to 6.43256
Heightened Def Con from 6.85075 to 6.85075
Heightened Def Con from 6.85088 to 6.85088
Heightened Def Con from 6.9687 to 6.9687
Heightened Def Con from 7.2435 +++++++++++++++++++++++++++++++to 7.2435
Heightened Def Con from 7.6407 to 7.6407
Heightened Def Con from 7.64096 to 7.64096
Heightened Def Con from 7.8047 to 7.8047
Heightened Def Con from 8.2655 to 8.2655
Heightened Def Con from 8.26602 +++++++++++++++++++++++++++++++to 8.26602
Heightened Def Con from 8.4135 to 8.4135
Heightened Def Con from 8.81048 to 8.81048
Heightened Def Con from 9.2105 to 9.2105
Heightened Def Con from 9.61409 +++++++++++++++++++++++++++++++to 9.61409
Heightened Def Con from 9.8635 +++++++++++++++++++++++++++++++to 9.8635

Date: Sat Aug 29 23:09:52 2020
Total elapsed time: 74.038 seconds.

tnom = 27
temp = 27
method = modified trap
totiter = 284082
traniter = 253200
tranpoints = 65346
accept = 49580
rejected = 16809
matrix size = 245
fillins = 1662
solver = Normal
Thread vector: 74.5/44.4[4] 28.1/22.9[4] 36.4/21.0[3] 4.1/19.5[1]  2592/500
Matrix Compiler1: 266.92 KB object code size  130.0/64.7/[42.3]
Matrix Compiler2: 49.21 KB object code size  62.4/25.7/[7.7]

