Circuit: * C:\Users\dvone\Desktop\Engineering 3.2\E-Design 344\GitRepo\E344\LTSpice\Assignment 2\X_1stOrderFilter .asc

WARNING: Less than two connections to node NC_01.  This node is used by V5.
Early termination of direct N-R iteration.
Direct Newton iteration failed to find .op point.  (Use ".option noopiter" to skip.)
Starting Gmin stepping
Gmin = 10
vernier = 0.5
vernier = 0.25
vernier = 0.125
Gmin = 5.5165
vernier = 0.0625
vernier = 0.03125
vernier = 0.015625
vernier = 0.0078125
Gmin = 5.49501
vernier = 0.00390625
vernier = 0.00195313
vernier = 0.000976563
vernier = 0.000488281
Gmin = 5.50104
Gmin = 0
Gmin stepping failed

Starting source stepping with srcstepmethod=0
Source Step = 3.0303%
vernier = 0.25
Source Step = 7.57576%
Source Step = 15.1515%
Source Step = 22.7273%
Source Step = 30.303%
vernier = 0.0625
Source Step = 29.5662%
Source Step = 29.5958%
Source Step = 29.6254%
Source Step = 29.6549%
Source Step = 29.6845%
vernier = 0.00146484
Source Step = 29.7171%
Source Step = 29.7615%
Source Step = 29.8059%
Source Step = 29.8503%
Source Step = 29.8946%
vernier = 0.00219727
Source Step = 29.9413%
Source Step = 30.0078%
Source Step = 30.0744%
Source Step = 30.141%
Source Step = 30.2076%
Source Step = 30.2742%
vernier = 0.0032959
Source Step = 30.3741%
Source Step = 30.4739%
Source Step = 30.5738%
Source Step = 30.6737%
Source Step = 30.7736%
vernier = 0.00494385
Source Step = 30.9184%
Source Step = 31.0682%
Source Step = 31.218%
Source Step = 31.3678%
Source Step = 31.5176%
vernier = 0.00741577
Source Step = 31.7274%
Source Step = 31.9521%
Source Step = 32.1768%
Source Step = 32.4015%
Source Step = 32.6263%
vernier = 0.0111237
Source Step = 32.9296%
Source Step = 33.2667%
Source Step = 33.6038%
Source Step = 33.9409%
Source Step = 34.2779%
vernier = 0.0166855
Source Step = 34.7161%
Source Step = 35.2218%
Source Step = 35.7274%
Source Step = 36.233%
Source Step = 36.7386%
vernier = 0.0250282
Source Step = 37.3707%
Source Step = 38.1291%
Source Step = 38.8875%
Source Step = 39.646%
Source Step = 40.4044%
vernier = 0.0375423
Source Step = 41.3145%
Source Step = 42.4521%
Source Step = 43.5898%
Source Step = 44.7274%
Source Step = 45.8651%
vernier = 0.0563135
Source Step = 47.1734%
Source Step = 48.8799%
Source Step = 50.5863%
Source Step = 52.2928%
Source Step = 53.9993%
vernier = 0.0844703
Source Step = 55.8764%
Source Step = 58.4361%
Source Step = 60.9958%
Source Step = 63.5555%
Source Step = 66.1152%
vernier = 0.126705
Source Step = 68.8029%
Source Step = 72.6424%
Source Step = 76.482%
Source Step = 80.3216%
Source Step = 84.1611%
Source Step = 88.0007%
vernier = 0.190058
Source Step = 91.4653%
Source Step = 91.5553%
Source Step = 91.6453%
Source Step = 91.7352%
Source Step = 91.8252%
Source Step = 91.9152%
Source Step = 92.0052%
Source Step = 92.0952%
Source Step = 92.1852%
Source Step = 92.2752%
Source Step = 92.3652%
Source Step = 92.4552%
Source Step = 92.5452%
Source Step = 92.6351%
Source Step = 92.7251%
Source Step = 92.8151%
Source Step = 92.9051%
Starting source stepping with srcstepmethod=1
Source Step = 3.0303%
Source Step = 5.55161%
Source stepping failed

Pseudo transient terminated at 100.301 s, solution accepted ready or not!

Date: Sat Aug 29 21:12:57 2020
Total elapsed time: 21.625 seconds.

tnom = 27
temp = 27
method = modified trap
totiter = 72578
traniter = 35120
tranpoints = 17515
accept = 17515
rejected = 498
matrix size = 214
fillins = 823
solver = Normal
Thread vector: 28.2/23.1[4] 16.2/7.4[4] 19.9/11.4[4] 2.2/13.6[1]  2592/500
Matrix Compiler1: 98.69 KB object code size  45.2/21.4/[14.8]
Matrix Compiler2: 31.85 KB object code size  11.8/11.2/[3.5]

