Circuit: * C:\Users\dvone\Desktop\Engineering 3.2\E-Design 344\GitRepo\E344\LTSpice\Assignment 2\X_2ndOrderBPF_Schmitt - Copy.asc

WARNING: Less than two connections to node NC_01.  This node is used by V1.
WARNING: Less than two connections to node FILTERED.  This node is used by R12.
Direct Newton iteration failed to find .op point.  (Use ".option noopiter" to skip.)
Starting Gmin stepping
Gmin = 10
vernier = 0.5
vernier = 0.25
vernier = 0.125
Gmin = 5.5165
vernier = 0.0625
vernier = 0.03125
vernier = 0.015625
vernier = 0.0078125
Gmin = 5.53632
vernier = 0.00390625
vernier = 0.00195313
vernier = 0.000976563
vernier = 0.000488281
Gmin = 5.52485
Gmin = 0
Gmin stepping failed

Starting source stepping with srcstepmethod=0
Source Step = 3.0303%
vernier = 0.25
Source Step = 1.70455%
Source Step = 3.59848%
Source Step = 5.49242%
Source Step = 7.38636%
Source Step = 9.2803%
vernier = 0.09375
Source Step = 11.9318%
Source Step = 14.7727%
Source Step = 17.6136%
Source Step = 20.4545%
Source Step = 20.7653%
Source Step = 20.8097%
Source Step = 20.854%
Source Step = 20.8984%
Source Step = 20.9428%
vernier = 0.00219727
Source Step = 20.9961%
Source Step = 21.0627%
Source Step = 21.1293%
Source Step = 21.1958%
Source Step = 21.2624%
vernier = 0.0032959
Source Step = 21.339%
Source Step = 21.4389%
Source Step = 21.5388%
Source Step = 21.6386%
Source Step = 21.7385%
vernier = 0.00494385
Source Step = 21.8484%
Source Step = 21.9982%
Source Step = 22.148%
Source Step = 22.2978%
Source Step = 22.4476%
vernier = 0.00741577
Source Step = 22.6049%
Source Step = 22.8296%
Source Step = 23.0544%
Source Step = 23.2791%
Source Step = 23.5038%
Source Step = 23.7285%
vernier = 0.0111237
Source Step = 24.0656%
Source Step = 24.4027%
Source Step = 24.7398%
Source Step = 25.0768%
Source Step = 25.4139%
vernier = 0.0166855
Source Step = 25.9027%
Source Step = 26.4083%
Source Step = 26.9139%
Source Step = 27.4196%
Source Step = 27.9252%
vernier = 0.0250282
Source Step = 28.633%
Source Step = 29.3915%
Source Step = 30.1499%
Source Step = 30.9083%
Source Step = 31.6668%
Source Step = 31.7189%
Source Step = 31.7663%
Source Step = 31.8137%
Source Step = 31.8611%
Source Step = 31.9085%
Source Step = 31.9559%
Source Step = 32.0033%
vernier = 0.0023464
Source Step = 32.0721%
Source Step = 32.1432%
Source Step = 32.2143%
Source Step = 32.2854%
Source Step = 32.3565%
vernier = 0.00351959
Source Step = 32.456%
Source Step = 32.5627%
Source Step = 32.6693%
Source Step = 32.776%
Source Step = 32.8826%
vernier = 0.00527939
Source Step = 33.0266%
Source Step = 33.1866%
Source Step = 33.3466%
Source Step = 33.5066%
Source Step = 33.6665%
vernier = 0.00791909
Source Step = 33.8745%
Source Step = 34.1145%
Source Step = 34.3545%
Source Step = 34.5944%
Source Step = 34.8344%
vernier = 0.0118786
Source Step = 35.1344%
Source Step = 35.4943%
Source Step = 35.8543%
Source Step = 36.2142%
Source Step = 36.5742%
vernier = 0.0178179
Source Step = 37.0062%
Source Step = 37.5461%
Source Step = 38.086%
Source Step = 38.626%
Source Step = 39.1659%
vernier = 0.0267269
Source Step = 39.7868%
Source Step = 40.5967%
Source Step = 41.4067%
Source Step = 42.2166%
Source Step = 43.0265%
vernier = 0.0400904
Source Step = 43.9174%
Source Step = 45.1322%
Source Step = 46.3471%
Source Step = 47.5619%
Source Step = 48.7768%
vernier = 0.0601356
Source Step = 50.0524%
Source Step = 51.8747%
Source Step = 53.697%
Source Step = 55.5193%
Source Step = 57.3416%
Source Step = 59.1639%
vernier = 0.0902034
Source Step = 61.8973%
Source Step = 64.6307%
Source Step = 67.3642%
Source Step = 70.0976%
Source Step = 72.831%
vernier = 0.135305
Source Step = 76.7945%
Source Step = 80.8947%
Source Step = 84.9948%
Source Step = 89.095%
Source Step = 93.1951%
vernier = 0.202958
Source Step = 98.9353%
Source Step = 99.2332%
Source Step = 99.3293%
Source Step = 99.4254%
Source Step = 99.5215%
Source Step = 99.6176%
Source Step = 99.7137%
Source Step = 99.8098%
Source Step = 99.9059%
Source Step = 100%
Source Step = 100%
Starting source stepping with srcstepmethod=1
Source Step = 3.0303%
Source Step = 25.7576%
Source Step = 27.2727%
Source stepping failed

Pseudo transient terminated at 100.129 s, solution accepted ready or not!
Heightened Def Con from 0.0905926 to 0.0905926

Date: Sat Sep 19 23:38:53 2020
Total elapsed time: 19.736 seconds.

tnom = 27
temp = 27
method = modified trap
totiter = 25242
traniter = 4786
tranpoints = 1773
accept = 1501
rejected = 314
matrix size = 317
fillins = 1092
solver = Normal
Thread vector: 36.3/23.1[4] 22.1/7.6[4] 22.0/10.6[4] 3.7/3.9[1]  2592/500
Matrix Compiler1: 123.51 KB object code size  67.6/35.7/[21.1]
Matrix Compiler2: 45.23 KB object code size  15.5/16.3/[5.9]

