Circuit: * C:\Users\dvone\Desktop\Engineering 3.2\E-Design 344\GitRepo\E344\LTSpice\Assignment 2\X_2ndOrderBPF_Schmitt - Copy.asc

Early termination of direct N-R iteration.
Direct Newton iteration failed to find .op point.  (Use ".option noopiter" to skip.)
Starting Gmin stepping
Gmin = 10
vernier = 0.5
vernier = 0.25
vernier = 0.125
Gmin = 5.5165
vernier = 0.0625
vernier = 0.03125
vernier = 0.015625
vernier = 0.0078125
Gmin = 5.49501
vernier = 0.00390625
vernier = 0.00195313
vernier = 0.000976563
vernier = 0.000488281
Gmin = 5.50104
Gmin = 0
Gmin stepping failed

Starting source stepping with srcstepmethod=0
Source Step = 3.0303%
vernier = 0.25
Source Step = 1.70455%
Source Step = 3.59848%
Source Step = 5.49242%
Source Step = 7.38636%
Source Step = 9.2803%
Source Step = 9.84848%
Source Step = 10.322%
Source Step = 10.7955%
Source Step = 11.2689%
Source Step = 11.7424%
vernier = 0.0234375
Source Step = 12.3816%
Source Step = 13.0919%
Source Step = 13.8021%
Source Step = 14.5123%
Source Step = 15.2225%
vernier = 0.0351563
Source Step = 16.1458%
Source Step = 16.6985%
Source Step = 16.7651%
Source Step = 16.8316%
Source Step = 16.8982%
Source Step = 16.9648%
Source Step = 17.0314%
vernier = 0.0032959
Source Step = 17.1313%
Source Step = 17.2311%
Source Step = 17.331%
Source Step = 17.4309%
Source Step = 17.5308%
vernier = 0.00494385
Source Step = 17.6756%
Source Step = 17.8254%
Source Step = 17.9752%
Source Step = 18.125%
Source Step = 18.2749%
vernier = 0.00741577
Source Step = 18.4846%
Source Step = 18.7093%
Source Step = 18.934%
Source Step = 19.1588%
Source Step = 19.3835%
vernier = 0.0111237
Source Step = 19.6868%
Source Step = 20.0239%
Source Step = 20.361%
Source Step = 20.6981%
Source Step = 21.0352%
vernier = 0.0166855
Source Step = 21.4734%
Source Step = 21.979%
Source Step = 22.4846%
Source Step = 22.9902%
Source Step = 23.4959%
vernier = 0.0250282
Source Step = 24.1279%
Source Step = 24.8863%
Source Step = 25.6447%
Source Step = 26.4032%
Source Step = 27.1616%
vernier = 0.0375423
Source Step = 28.0717%
Source Step = 29.2094%
Source Step = 30.347%
Source Step = 30.4679%
Source Step = 30.539%
Source Step = 30.6101%
Source Step = 30.6812%
Source Step = 30.7523%
vernier = 0.00351959
Source Step = 30.8376%
Source Step = 30.9443%
Source Step = 31.0509%
Source Step = 31.1576%
Source Step = 31.2642%
vernier = 0.00527939
Source Step = 31.3869%
Source Step = 31.5469%
Source Step = 31.7069%
Source Step = 31.8668%
Source Step = 32.0268%
vernier = 0.00791909
Source Step = 32.2028%
Source Step = 32.4428%
Source Step = 32.6827%
Source Step = 32.9227%
Source Step = 33.1627%
vernier = 0.0118786
Source Step = 33.4147%
Source Step = 33.7746%
Source Step = 34.1346%
Source Step = 34.4945%
Source Step = 34.8545%
Source Step = 35.2145%
vernier = 0.0178179
Source Step = 35.7544%
Source Step = 36.2943%
Source Step = 36.8343%
Source Step = 37.3742%
Source Step = 37.9141%
vernier = 0.0267269
Source Step = 38.6971%
Source Step = 39.507%
Source Step = 40.3169%
Source Step = 41.1268%
Source Step = 41.9367%
vernier = 0.0400904
Source Step = 43.0705%
Source Step = 44.2854%
Source Step = 45.5003%
Source Step = 46.7151%
Source Step = 47.93%
vernier = 0.0601356
Source Step = 49.5701%
Source Step = 51.3923%
Source Step = 53.2146%
Source Step = 55.0369%
Source Step = 56.8592%
vernier = 0.0902034
Source Step = 59.2282%
Source Step = 61.9616%
Source Step = 64.6951%
Source Step = 67.4285%
Source Step = 70.1619%
vernier = 0.135305
Source Step = 72.8612%
vernier = 0.00845657
Source Step = 72.8164%
Source Step = 72.8804%
Source Step = 72.9445%
Source Step = 73.0085%
Source Step = 73.0726%
vernier = 0.00317121
Source Step = 73.1527%
Source Step = 73.2488%
Source Step = 73.3449%
Source Step = 73.441%
Source Step = 73.5371%
vernier = 0.00475682
Source Step = 73.6524%
Source Step = 73.7965%
Source Step = 73.9407%
Source Step = 74.0848%
Source Step = 74.229%
vernier = 0.00713523
Source Step = 74.3948%
Source Step = 74.611%
Source Step = 74.8272%
Source Step = 75.0434%
Source Step = 75.2596%
vernier = 0.0107028
Source Step = 75.4975%
Source Step = 75.8218%
Source Step = 76.1461%
Source Step = 76.4705%
Source Step = 76.7948%
vernier = 0.0160543
Source Step = 77.1353%
Source Step = 77.6218%
Source Step = 78.1083%
Source Step = 78.5948%
Source Step = 79.0813%
Source Step = 79.5678%
vernier = 0.0240814
Source Step = 80.2975%
Source Step = 81.0273%
Source Step = 81.757%
Source Step = 82.4867%
Source Step = 83.2165%
vernier = 0.0361221
Source Step = 84.2746%
Source Step = 85.3692%
Source Step = 86.4638%
Source Step = 87.5584%
Source Step = 88.653%
vernier = 0.0541831
Source Step = 90.1855%
Source Step = 91.0116%
Source Step = 91.0372%
Source Step = 91.0629%
Source Step = 91.0885%
Source Step = 91.1142%
Source Step = 91.1399%
Source Step = 91.1655%
Source Step = 91.1912%
Source Step = 91.2168%
Source Step = 91.2425%
Source Step = 91.2681%
Source Step = 91.2938%
Source Step = 91.3194%
Source Step = 91.3451%
Source Step = 91.3707%
Source Step = 91.3964%
Source Step = 91.4221%
Source Step = 91.4477%
Source Step = 91.4734%
Source Step = 91.499%
Source Step = 91.5247%
Source Step = 91.5503%
Source Step = 91.576%
Source Step = 91.6016%
Source Step = 91.6273%
Source Step = 91.653%
Source Step = 91.6786%
Source Step = 91.7043%
Source Step = 91.7299%
Source Step = 91.7556%
Starting source stepping with srcstepmethod=1
Source Step = 3.0303%
vernier = 0.25
Source Step = 0.843395%
Source stepping failed

Pseudo transient terminated at 102.957 s, solution accepted ready or not!

Date: Sat Sep 19 09:18:10 2020
Total elapsed time: 128.548 seconds.

tnom = 27
temp = 27
method = modified trap
totiter = 104058
traniter = 35029
tranpoints = 17515
accept = 17515
rejected = 931
matrix size = 369
fillins = 2077
solver = Normal
Matrix Compiler1: 328.01 KB object code size  112.9/60.6/[46.0]
Matrix Compiler2: 66.90 KB object code size  21.9/21.5/[6.6]

