Circuit: * C:\Users\dvone\Desktop\Engineering 3.2\E-Design 344\GitRepo\E344\LTSpice\Assignment 2\X_2ndOrderBPF_Schmitt_Bruh_CurrentWorking.asc

WARNING: Less than two connections to node 9V.  This node is used by R_SENSE.
Early termination of direct N-R iteration.
Direct Newton iteration failed to find .op point.  (Use ".option noopiter" to skip.)
Starting Gmin stepping
Gmin = 10
vernier = 0.5
vernier = 0.25
vernier = 0.125
Gmin = 5.5165
vernier = 0.0625
vernier = 0.03125
vernier = 0.015625
vernier = 0.0078125
Gmin = 5.49501
vernier = 0.00390625
vernier = 0.00195313
vernier = 0.000976563
vernier = 0.000488281
Gmin = 5.50104
Gmin = 0
Gmin stepping failed

Starting source stepping with srcstepmethod=0
Source Step = 3.0303%
vernier = 0.25
Source Step = 1.70455%
Source Step = 3.59848%
Source Step = 5.49242%
Source Step = 7.38636%
Source Step = 9.2803%
vernier = 0.09375
Source Step = 11.9318%
Source Step = 14.7727%
Source Step = 17.6136%
Source Step = 20.4545%
Source Step = 23.2955%
vernier = 0.140625
Source Step = 27.1307%
Source Step = 31.392%
Source Step = 35.6534%
Source Step = 39.9148%
Source Step = 44.1761%
vernier = 0.210938
Source Step = 49.7159%
Source Step = 56.108%
Source Step = 62.5%
Source Step = 68.892%
Source Step = 75.2841%
vernier = 0.316406
Source Step = 83.2741%
Source Step = 88.0719%
Starting source stepping with srcstepmethod=1
Source Step = 3.0303%
Source Step = 10.2273%
Source Step = 10.6061%
Source Step = 10.6504%
Source Step = 10.68%
Source stepping failed

Pseudo transient terminated at 101.642 s, solution accepted ready or not!

Date: Sat Sep 19 01:44:03 2020
Total elapsed time: 15.782 seconds.

tnom = 27
temp = 27
method = modified trap
totiter = 117205
traniter = 105228
tranpoints = 52607
accept = 52566
rejected = 163
matrix size = 325
fillins = 736
solver = Normal
Thread vector: 29.8/23.1[4] 15.2/6.4[4] 16.5/6.2[4] 3.3/5.9[1]  2592/500
Matrix Compiler1: 60.50 KB object code size  43.1/19.3/[11.4]
Matrix Compiler2: 39.85 KB object code size  16.0/15.8/[5.2]

