Circuit: * C:\Users\dvone\Desktop\Engineering 3.2\E-Design 344\GitRepo\E344\LTSpice\Assignment 2\X_2ndOrderBPF_Schmitt - Final.asc

Early termination of direct N-R iteration.
Direct Newton iteration failed to find .op point.  (Use ".option noopiter" to skip.)
Starting Gmin stepping
Gmin = 10
vernier = 0.5
vernier = 0.25
vernier = 0.125
Gmin = 5.5165
vernier = 0.0625
vernier = 0.03125
vernier = 0.015625
vernier = 0.0078125
Gmin = 5.49501
vernier = 0.00390625
vernier = 0.00195313
vernier = 0.000976563
vernier = 0.000488281
Gmin = 5.50104
Gmin = 0
Gmin stepping failed

Starting source stepping with srcstepmethod=0
Source Step = 3.0303%
Source Step = 33.3333%
Source Step = 49.2424%
Source Step = 56.8182%
Source Step = 64.3939%
Source Step = 71.9697%
Source Step = 79.5455%
vernier = 0.375
Source Step = 88.6364%
Source Step = 100%
Source stepping succeeded in finding the operating point.

Heightened Def Con from 0.048 to 0.048
Heightened Def Con from 0.0480489 to 0.0480489
Heightened Def Con from 9.99691 to 9.99691
Heightened Def Con from 20.6511 to 20.6511

Date: Fri Sep 18 21:14:21 2020
Total elapsed time: 6.723 seconds.

tnom = 27
temp = 27
method = modified trap
totiter = 119019
traniter = 116769
tranpoints = 56464
accept = 55031
rejected = 1437
matrix size = 94
fillins = 567
solver = Normal
Thread vector: 21.8/16.2[2] 15.8/9.1[2] 8.6/6.3[2] 1.1/1.7[1]  2592/500
Matrix Compiler1: 72.48 KB object code size  28.1/16.4/[10.2]
Matrix Compiler2: 17.94 KB object code size  3.3/3.0/[1.6]

