Circuit: * C:\Users\dvone\Desktop\Engineering 3.2\E-Design 344\GitRepo\E344\LTSpice\Assignment 2\X_2ndOrderFilter.asc

WARNING: Less than two connections to node NC_01.  This node is used by V5.
Early termination of direct N-R iteration.
Direct Newton iteration failed to find .op point.  (Use ".option noopiter" to skip.)
Starting Gmin stepping
Gmin = 10
vernier = 0.5
vernier = 0.25
vernier = 0.125
Gmin = 5.5165
vernier = 0.0625
vernier = 0.03125
vernier = 0.015625
vernier = 0.0078125
Gmin = 5.49501
vernier = 0.00390625
vernier = 0.00195313
vernier = 0.000976563
vernier = 0.000488281
Gmin = 5.50104
Gmin = 0
Gmin stepping failed

Starting source stepping with srcstepmethod=0
Source Step = 3.0303%
vernier = 0.25
Source Step = 7.57576%
Source Step = 15.1515%
Source Step = 22.7273%
Source Step = 30.303%
vernier = 0.0625
Source Step = 29.5662%
Starting source stepping with srcstepmethod=1
Source Step = 3.0303%
Source Step = 7.48106%
Source stepping failed

Pseudo transient terminated at 101.408 s, solution accepted ready or not!
Heightened Def Con from 0.7163 to 0.7163
Heightened Def Con from 1.37906 to 1.37906
Heightened Def Con from 1.37933 to 1.37933
Heightened Def Con from 2.0705 to 2.0705
Heightened Def Con from 2.7647 to 2.7647
Heightened Def Con from 4.0715 +++++++++++++++++++++++++++++++to 4.0715
Heightened Def Con from 4.7127 to 4.7127
Heightened Def Con from 5.37884 to 5.37884
Heightened Def Con from 6.0715 +++++++++++++++++++++++++++++++to 6.0715
Heightened Def Con from 6.7607 to 6.7607
Heightened Def Con from 7.4283 to 7.4283
Heightened Def Con from 8.0723 to 8.0723
Heightened Def Con from 8.7135 to 8.7135
Heightened Def Con from 8.71402 to 8.71402
Heightened Def Con from 8.71429 to 8.71429
Heightened Def Con from 9.3755 +++++++++++++++++++++++++++++++to 9.3755

Date: Sun Aug 30 00:39:47 2020
Total elapsed time: 23.923 seconds.

tnom = 27
temp = 27
method = modified trap
totiter = 109734
traniter = 97061
tranpoints = 31450
accept = 26948
rejected = 4765
matrix size = 247
fillins = 1334
solver = Normal
Thread vector: 40.7/29.4[4] 25.0/9.3[4] 26.4/12.1[4] 2.8/5.7[1]  2592/500
Matrix Compiler1: 180.00 KB object code size  73.2/41.7/[25.2]
Matrix Compiler2: 43.95 KB object code size  16.8/14.6/[4.6]

