Circuit: * C:\Users\dvone\Desktop\Engineering 3.2\E-Design 344\GitRepo\E344\LTSpice\Assignment 2\X_2ndOrderBPF_Schmitt_FilteredSquare.asc

Early termination of direct N-R iteration.
Direct Newton iteration failed to find .op point.  (Use ".option noopiter" to skip.)
Starting Gmin stepping
Gmin = 10
vernier = 0.5
vernier = 0.25
vernier = 0.125
Gmin = 6.68666
vernier = 0.0625
vernier = 0.03125
vernier = 0.015625
vernier = 0.0078125
Gmin = 6.72377
vernier = 0.00390625
vernier = 0.00195313
vernier = 0.000976563
vernier = 0.000488281
Gmin = 6.72131
Gmin = 0
Gmin stepping failed

Starting source stepping with srcstepmethod=0
Source Step = 3.0303%
vernier = 0.25
Source Step = 7.57576%
Source Step = 11.3666%
Source Step = 11.3962%
Source Step = 11.4258%
Source Step = 11.4554%
Source Step = 11.485%
Source Step = 11.5146%
vernier = 0.00146484
Source Step = 11.553%
Source Step = 11.5974%
Source Step = 11.6418%
Source Step = 11.6862%
Source Step = 11.7306%
vernier = 0.00219727
Source Step = 11.7861%
Source Step = 11.8527%
Source Step = 11.9192%
Source Step = 11.9858%
Source Step = 12.0524%
vernier = 0.0032959
Source Step = 12.1323%
Source Step = 12.2322%
Source Step = 12.3321%
Source Step = 12.4319%
Source Step = 12.5318%
vernier = 0.00494385
Source Step = 12.6467%
Source Step = 12.7965%
Source Step = 12.9463%
Source Step = 13.0961%
Source Step = 13.2459%
vernier = 0.00741577
Source Step = 13.4107%
Source Step = 13.6354%
Source Step = 13.8602%
Source Step = 14.0849%
Source Step = 14.3096%
vernier = 0.0111237
Source Step = 14.5456%
Source Step = 14.8826%
Source Step = 15.2197%
Source Step = 15.5568%
Source Step = 15.8939%
Source Step = 16.231%
vernier = 0.0166855
Source Step = 16.7366%
Source Step = 17.2422%
Source Step = 17.7478%
Source Step = 18.2534%
Source Step = 18.7591%
vernier = 0.0250282
Source Step = 19.4922%
Source Step = 20.2506%
Source Step = 21.0091%
Source Step = 21.7675%
Source Step = 22.5259%
vernier = 0.0375423
Source Step = 23.5877%
Source Step = 24.7254%
Source Step = 25.863%
Source Step = 27.0007%
Source Step = 28.1383%
vernier = 0.0563135
Source Step = 29.6742%
Source Step = 31.3806%
Source Step = 33.0871%
Source Step = 34.7936%
Source Step = 36.5%
vernier = 0.0844703
Source Step = 38.7184%
Source Step = 41.2781%
Source Step = 43.8379%
Source Step = 46.3976%
Source Step = 48.9573%
vernier = 0.126705
Source Step = 52.1569%
Source Step = 55.9965%
Source Step = 59.836%
Source Step = 63.6756%
Source Step = 67.5151%
vernier = 0.190058
Source Step = 72.1226%
Source Step = 77.8819%
Source Step = 83.6413%
Source Step = 89.4006%
Source Step = 91.8663%
Source Step = 91.9563%
Source Step = 92.0463%
Starting source stepping with srcstepmethod=1
Source Step = 3.0303%
Source Step = 7.3982%
Source stepping failed

