Circuit: * C:\Users\dvone\Desktop\Engineering 3.2\E-Design 344\GitRepo\E344\LTSpice\Assignment 2\X_2ndOrderBPF_Schmitt - Final.asc

Early termination of direct N-R iteration.
Direct Newton iteration failed to find .op point.  (Use ".option noopiter" to skip.)
Starting Gmin stepping
Gmin = 10
vernier = 0.5
vernier = 0.25
vernier = 0.125
Gmin = 5.5165
vernier = 0.0625
vernier = 0.03125
vernier = 0.015625
vernier = 0.0078125
Gmin = 5.49501
vernier = 0.00390625
vernier = 0.00195313
vernier = 0.000976563
vernier = 0.000488281
Gmin = 5.50104
Gmin = 0
Gmin stepping failed

Starting source stepping with srcstepmethod=0
Source Step = 3.0303%
Source Step = 33.3333%
Source Step = 63.6364%
Source Step = 93.9394%
Source stepping succeeded in finding the operating point.

Heightened Def Con from 8.9001 to 8.9001
Heightened Def Con from 8.90023 to 8.90023
Heightened Def Con from 14.359 to 14.359
Heightened Def Con from 14.3591 to 14.3591
Heightened Def Con from 16.1091 to 16.1091
Heightened Def Con from 16.1093 to 16.1093
Heightened Def Con from 17.9564 to 17.9564
Heightened Def Con from 19.7881 to 19.7881
Heightened Def Con from 19.7882 to 19.7882
Heightened Def Con from 23.4491 to 23.4491
Heightened Def Con from 23.4493 to 23.4493
Heightened Def Con from 23.4493 to 23.4493

Date: Fri Sep 18 15:41:13 2020
Total elapsed time: 7.421 seconds.

tnom = 27
temp = 27
method = modified trap
totiter = 128543
traniter = 126510
tranpoints = 58643
accept = 56641
rejected = 2014
matrix size = 93
fillins = 544
solver = Normal
Thread vector: 38.6/34.5[2] 11.8/9.1[2] 9.3/6.5[2] 1.0/2.3[1]  2592/500
Matrix Compiler1: 66.33 KB object code size  20.1/10.4/[9.3]
Matrix Compiler2: 17.48 KB object code size  6.3/5.6/[1.6]

