Circuit: * C:\Users\dvone\Desktop\Engineering 3.2\E-Design 344\GitRepo\E344\LTSpice\Assignment 2\X_2ndOrderBPF_Schmitt_Bruh_CurrentWorking.asc

Early termination of direct N-R iteration.
Direct Newton iteration failed to find .op point.  (Use ".option noopiter" to skip.)
Starting Gmin stepping
Gmin = 10
Gmin = 1.07374
Gmin = 0.115292
Gmin = 0.0123794
Gmin = 0.00132923
vernier = 0.5
vernier = 0.25
vernier = 0.125
vernier = 0.0625
Gmin = 0.00100083
vernier = 0.03125
vernier = 0.015625
vernier = 0.0078125
vernier = 0.00390625
vernier = 0.00195313
Gmin = 0.00100083
vernier = 0.000976563
vernier = 0.000488281
Gmin = 0
Gmin stepping failed

Starting source stepping with srcstepmethod=0
Source Step = 3.0303%
vernier = 0.25
Source Step = 1.70455%
Source Step = 3.59848%
Source Step = 5.49242%
Source Step = 7.38636%
Source Step = 9.2803%
vernier = 0.09375
Source Step = 11.9318%
Source Step = 14.7727%
Source Step = 17.6136%
Source Step = 20.4545%
Source Step = 20.7653%
Source Step = 20.8097%
Source Step = 20.854%
Source Step = 20.8984%
Source Step = 20.9428%
vernier = 0.00219727
Source Step = 20.9894%
Source Step = 21.056%
Source Step = 21.1226%
Source Step = 21.1892%
Source Step = 21.2558%
Source Step = 21.3224%
vernier = 0.0032959
Source Step = 21.4222%
Source Step = 21.5221%
Source Step = 21.622%
Source Step = 21.7219%
Source Step = 21.8217%
vernier = 0.00494385
Source Step = 21.9666%
Source Step = 22.1164%
Source Step = 22.2662%
Source Step = 22.416%
Source Step = 22.5658%
vernier = 0.00741577
Source Step = 22.7755%
Source Step = 23.0003%
Source Step = 23.225%
Source Step = 23.4497%
Source Step = 23.6744%
vernier = 0.0111237
Source Step = 23.9778%
Source Step = 24.3149%
Source Step = 24.652%
Source Step = 24.989%
Source Step = 25.3261%
vernier = 0.0166855
Source Step = 25.7643%
Source Step = 26.2699%
Source Step = 26.7756%
Source Step = 27.2812%
Source Step = 27.7868%
vernier = 0.0250282
Source Step = 28.4188%
Source Step = 29.1773%
Source Step = 29.9357%
Source Step = 30.6941%
Source Step = 31.4526%
vernier = 0.0375423
Source Step = 32.3627%
Source Step = 33.5003%
Source Step = 34.638%
Source Step = 35.7756%
Source Step = 36.9133%
vernier = 0.0563135
Source Step = 38.2216%
Source Step = 39.928%
Source Step = 41.6345%
Source Step = 43.341%
Source Step = 45.0474%
vernier = 0.0844703
Source Step = 46.9246%
Source Step = 49.4843%
Source Step = 52.044%
Source Step = 54.6037%
Source Step = 57.1634%
vernier = 0.126705
Source Step = 59.8511%
Source Step = 63.6906%
Source Step = 67.5302%
Source Step = 71.3697%
Source Step = 75.2093%
Source Step = 79.0489%
vernier = 0.190058
Source Step = 84.8082%
Source Step = 90.5675%
Source Step = 91.7644%
Source Step = 91.8544%
Source Step = 91.9444%
Source Step = 92.0344%
Source Step = 92.1244%
Source Step = 92.2143%
Source Step = 92.3043%
Source Step = 92.3943%
Source Step = 92.4843%
Source Step = 92.5743%
Source Step = 92.6643%
Source Step = 92.7543%
Source Step = 92.8443%
Source Step = 92.9343%
Source Step = 93.0242%
Source Step = 93.1142%
Source Step = 93.2042%
Source Step = 93.2942%
Source Step = 93.3842%
Starting source stepping with srcstepmethod=1
Source Step = 3.0303%
vernier = 0.25
Source Step = 7.57576%
vernier = 0.0625
Source Step = 7.12595%
Source Step = 7.19697%
Source stepping failed

Pseudo transient terminated at 102.873 s, solution accepted ready or not!
Changing Tseed to 1e-007

Date: Sat Sep 19 11:32:45 2020
Total elapsed time: 80.748 seconds.

tnom = 27
temp = 27
method = modified trap
totiter = 650339
traniter = 622592
tranpoints = 122012
accept = 103285
rejected = 18845
matrix size = 324
fillins = 1129
solver = Normal
Thread vector: 38.8/25.4[4] 22.5/9.4[4] 17.7/8.6[4] 5.0/3.4[4]  2592/500
Matrix Compiler1: 125.88 KB object code size  69.2/35.8/[21.6]
Matrix Compiler2: 46.61 KB object code size  15.6/15.7/[5.3]

