Circuit: * C:\Users\dvone\Desktop\Engineering 3.2\E-Design 344\GitRepo\E344\LTSpice\Assignment 2\X_2ndOrderBPF_Schmitt.asc

Early termination of direct N-R iteration.
Direct Newton iteration failed to find .op point.  (Use ".option noopiter" to skip.)
Starting Gmin stepping
Gmin = 10
vernier = 0.5
vernier = 0.25
vernier = 0.125
Gmin = 6.68666
vernier = 0.0625
vernier = 0.03125
vernier = 0.015625
vernier = 0.0078125
Gmin = 6.72377
vernier = 0.00390625
vernier = 0.00195313
vernier = 0.000976563
vernier = 0.000488281
Gmin = 6.72131
Gmin = 0
Gmin stepping failed

Starting source stepping with srcstepmethod=0
Source Step = 3.0303%
Source Step = 33.3333%
Source Step = 63.6364%
Source Step = 93.9394%
Source stepping succeeded in finding the operating point.


Date: Fri Sep 18 21:18:34 2020
Total elapsed time: 1.500 seconds.

tnom = 27
temp = 27
method = modified trap
totiter = 36851
traniter = 35034
tranpoints = 17518
accept = 17518
rejected = 0
matrix size = 61
fillins = 224
solver = Normal
Matrix Compiler1: 21.57 KB object code size  5.5/2.5/[1.8]
Matrix Compiler2: 9.12 KB object code size  1.6/1.6/[0.8]

