Circuit: * C:\Users\dvone\Desktop\Engineering 3.2\E-Design 344\GitRepo\E344\LTSpice\Assignment 2\X_2ndOrderBPF_Schmitt_Bruh_CurrentWorking - Copy.asc

WARNING: Less than two connections to node 9V.  This node is used by R_SENSE.
Direct Newton iteration for .op point succeeded.

Date: Sat Sep 19 09:09:38 2020
Total elapsed time: 6.688 seconds.

tnom = 27
temp = 27
method = modified trap
totiter = 125741
traniter = 125736
tranpoints = 57546
accept = 56181
rejected = 1365
matrix size = 146
fillins = 168
solver = Normal
Thread vector: 18.9/12.1[3] 30.6/3.6[3] 6.5/3.5[3] 1.4/4.3[1]  2592/500
Matrix Compiler1: 16.66 KB object code size  10.2/27.3/[3.0]
Matrix Compiler2: 14.90 KB object code size  3.7/5.7/[1.8]

