Circuit: * C:\Users\dvone\Desktop\Engineering 3.2\E-Design 344\GitRepo\E344\LTSpice\Assignment 2\X_2ndOrderBPF_Schmitt - Copy.asc

Direct Newton iteration failed to find .op point.  (Use ".option noopiter" to skip.)
Starting Gmin stepping
Gmin = 10
Gmin = 1.07374
vernier = 0.5
Gmin = 0.20016
vernier = 0.666667
vernier = 0.333333
Gmin = 0.0907233
vernier = 0.444444
vernier = 0.592592
Gmin = 0.0294048
vernier = 0.790123
vernier = 1
Gmin = 0.00526981
vernier = 0.5
vernier = 0.666667
Gmin = 0.00184158
vernier = 0.888888
vernier = 0.444444
vernier = 0.222222
vernier = 0.111111
Gmin = 0.00104374
vernier = 0.0555555
vernier = 0.0277778
vernier = 0.0138889
vernier = 0.00694444
Gmin = 0.00100162
vernier = 0.00347222
vernier = 0.00173611
vernier = 0.000868055
Gmin = 0.000999886
vernier = 0.000434028
Gmin = 0
Gmin stepping failed

Starting source stepping with srcstepmethod=0
Source Step = 3.0303%
vernier = 0.25
Source Step = 2.27273%
Source Step = 4.16667%
Source Step = 6.06061%
Source Step = 7.95455%
Source Step = 9.84848%
vernier = 0.09375
Source Step = 12.4053%
Source Step = 15.2462%
vernier = 0.0234375
Source Step = 14.9976%
Source Step = 15.042%
Source Step = 15.0864%
Source Step = 15.1308%
Source Step = 15.1752%
vernier = 0.00219727
Source Step = 15.224%
Source Step = 15.2906%
Source Step = 15.3572%
Source Step = 15.4238%
Source Step = 15.4904%
vernier = 0.0032959
Source Step = 15.5603%
Source Step = 15.6601%
Source Step = 15.76%
Source Step = 15.8599%
Source Step = 15.9598%
Source Step = 16.0596%
vernier = 0.00494385
Source Step = 16.2095%
Source Step = 16.3593%
Source Step = 16.5091%
Source Step = 16.6589%
Source Step = 16.8087%
vernier = 0.00741577
Source Step = 17.0259%
Source Step = 17.2507%
Source Step = 17.4754%
Source Step = 17.7001%
Source Step = 17.9248%
vernier = 0.0111237
Source Step = 18.2394%
Source Step = 18.5765%
Source Step = 18.9136%
Source Step = 19.2507%
Source Step = 19.5878%
vernier = 0.0166855
Source Step = 20.0428%
Source Step = 20.5484%
Source Step = 21.0541%
Source Step = 21.5597%
Source Step = 22.0653%
vernier = 0.0250282
Source Step = 22.7226%
Source Step = 23.481%
Source Step = 24.2395%
Source Step = 24.9979%
Source Step = 25.7563%
vernier = 0.0375423
Source Step = 26.7044%
Source Step = 27.842%
Source Step = 28.9797%
Source Step = 30.1173%
Source Step = 31.255%
vernier = 0.0563135
Source Step = 32.6201%
Source Step = 34.3266%
Source Step = 36.0331%
Source Step = 37.7395%
Source Step = 39.446%
vernier = 0.0844703
Source Step = 41.4085%
Source Step = 43.9682%
Source Step = 46.5279%
Source Step = 49.0876%
Source Step = 51.6473%
vernier = 0.126705
Source Step = 54.4629%
Source Step = 58.3025%
Source Step = 62.1421%
Source Step = 65.9816%
Source Step = 69.8212%
vernier = 0.190058
Source Step = 73.8527%
Source Step = 79.6121%
Source Step = 85.3714%
Source Step = 91.1307%
Source Step = 93.4615%
Source Step = 93.5514%
Source Step = 93.6414%
Source Step = 93.7314%
Source Step = 93.8214%
Source Step = 93.9114%
Source Step = 94.0014%
Source Step = 94.0914%
Source Step = 94.1814%
Source Step = 94.2714%
Source Step = 94.3614%
Source Step = 94.4513%
Source Step = 94.5413%
Source Step = 94.6313%
Source Step = 94.7213%
Source Step = 94.8113%
Source Step = 94.9013%
Source Step = 94.9913%
Source Step = 95.0813%
Source Step = 95.1713%
Source Step = 95.2612%
Source Step = 95.3512%
Source Step = 95.4412%
Source Step = 95.5312%
Source Step = 95.6212%
Source Step = 95.7112%
Source Step = 95.8012%
Source Step = 95.8912%
Source Step = 95.9812%
Source Step = 96.0712%
Source Step = 96.1611%
Source Step = 96.2511%
Source Step = 96.3411%
Source Step = 96.4311%
Source Step = 96.5211%
Source Step = 96.6111%
Source Step = 96.7011%
Source Step = 96.7911%
Source Step = 96.8811%
Source Step = 96.9711%
Source Step = 97.061%
Source Step = 97.151%
Source Step = 97.241%
Source Step = 97.331%
Source Step = 97.421%
Source Step = 97.511%
Source Step = 97.601%
Source Step = 97.691%
Source Step = 97.781%
Source Step = 97.8709%
Source Step = 97.9609%
Source Step = 98.0509%
Source Step = 98.1409%
Source Step = 98.2309%
Source Step = 98.3209%
Source Step = 98.4109%
Source Step = 98.5009%
Source Step = 98.5909%
Source Step = 98.6809%
Source Step = 98.7708%
Source Step = 98.8608%
Source Step = 98.9508%
Source Step = 99.0408%
Source Step = 99.1308%
Source Step = 99.2208%
Source Step = 99.3108%
Source Step = 99.4008%
Source Step = 99.4908%
Source Step = 99.5808%
Source Step = 99.6707%
Source Step = 99.7607%
Source Step = 99.8507%
Source Step = 99.9407%
Source Step = 100%
Starting source stepping with srcstepmethod=1
Source Step = 3.0303%
Source Step = 14.4413%
vernier = 0.00390625
Source stepping failed

Pseudo Transient succeeded in finding the operating point at 272.185 ms.

Date: Sun Sep 20 18:31:03 2020
Total elapsed time: 36.752 seconds.

tnom = 27
temp = 27
method = modified trap
totiter = 68672
traniter = 3636
tranpoints = 1579
accept = 1401
rejected = 358
matrix size = 190
fillins = 670
solver = Normal
Thread vector: 31.4/17.8[4] 17.0/6.5[4] 16.3/7.8[4] 2.3/3.0[1]  2592/500
Matrix Compiler1: 66.99 KB object code size  32.4/19.0/[11.6]
Matrix Compiler2: 27.63 KB object code size  9.6/10.5/[3.3]

