Circuit: * C:\Users\dvone\Desktop\Engineering 3.2\E-Design 344\GitRepo\E344\LTSpice\Assignment 2\X_BPF.asc

WARNING: Less than two connections to node NC_01.  This node is used by V5.
Early termination of direct N-R iteration.
Direct Newton iteration failed to find .op point.  (Use ".option noopiter" to skip.)
Starting Gmin stepping
Gmin = 10
vernier = 0.5
vernier = 0.25
vernier = 0.125
Gmin = 5.5165
vernier = 0.0625
vernier = 0.03125
vernier = 0.015625
vernier = 0.0078125
Gmin = 5.49501
vernier = 0.00390625
vernier = 0.00195313
vernier = 0.000976563
vernier = 0.000488281
Gmin = 5.50104
Gmin = 0
Gmin stepping failed

Starting source stepping with srcstepmethod=0
Source Step = 3.0303%
vernier = 0.25
Source Step = 1.70455%
Source Step = 3.59848%
Source Step = 5.49242%
Source Step = 7.38636%
Source Step = 8.72396%
vernier = 0.000976563
Source Step = 8.74171%
Source Step = 8.77131%
Source Step = 8.8009%
Source Step = 8.83049%
Source Step = 8.86009%
vernier = 0.00146484
Source Step = 8.89708%
Source Step = 8.94147%
Source Step = 8.98585%
Source Step = 9.03024%
Source Step = 9.07463%
vernier = 0.00219727
Source Step = 9.1279%
Source Step = 9.19448%
Source Step = 9.26107%
Source Step = 9.32765%
Source Step = 9.39424%
vernier = 0.0032959
Source Step = 9.47081%
Source Step = 9.57068%
Source Step = 9.67056%
Source Step = 9.77043%
Source Step = 9.87031%
vernier = 0.00494385
Source Step = 9.98017%
Source Step = 10.13%
Source Step = 10.2798%
Source Step = 10.4296%
Source Step = 10.5794%
vernier = 0.00741577
Source Step = 10.7367%
Source Step = 10.9615%
Source Step = 11.1862%
Source Step = 11.4109%
Source Step = 11.6356%
Source Step = 11.8603%
vernier = 0.0111237
Source Step = 12.1974%
Source Step = 12.5345%
Source Step = 12.8716%
Source Step = 13.2087%
Source Step = 13.5457%
vernier = 0.0166855
Source Step = 14.0345%
Source Step = 14.5401%
Source Step = 15.0457%
Source Step = 15.5514%
Source Step = 16.057%
vernier = 0.0250282
Source Step = 16.7649%
Source Step = 17.5233%
Source Step = 18.2817%
Source Step = 19.0401%
Source Step = 19.7986%
vernier = 0.0375423
Source Step = 20.8225%
Source Step = 21.9601%
Source Step = 23.0978%
Source Step = 24.2354%
Source Step = 25.373%
vernier = 0.0563135
Source Step = 26.852%
Source Step = 28.5585%
Source Step = 30.2649%
Source Step = 31.9714%
Source Step = 33.6779%
vernier = 0.0844703
Source Step = 35.811%
Source Step = 38.3707%
Source Step = 40.9304%
Source Step = 43.4901%
Source Step = 46.0498%
vernier = 0.126705
Source Step = 49.1214%
Source Step = 52.961%
Source Step = 56.8005%
Source Step = 60.6401%
Source Step = 64.4797%
vernier = 0.190058
Source Step = 68.8951%
Source Step = 74.6545%
Source Step = 80.4138%
Source Step = 86.1732%
Source Step = 91.9325%
vernier = 0.0475145
Source Step = 91.4286%
Source Step = 91.5185%
Source Step = 91.6085%
Starting source stepping with srcstepmethod=1
Source Step = 3.0303%
Source Step = 6.81818%
vernier = 0.015625
