Circuit: * C:\Users\dvone\Desktop\Engineering 3.2\E-Design 344\GitRepo\E344\LTSpice\Assignment 2\X_RCFilter.asc

WARNING: Less than two connections to node NC_01.  This node is used by V5.
Direct Newton iteration failed to find .op point.  (Use ".option noopiter" to skip.)
Starting Gmin stepping
Gmin = 10
Gmin = 1.07374
Gmin = 0.115292
Gmin = 0.0123794
Gmin = 0.00132923
vernier = 0.5
vernier = 0.25
vernier = 0.125
vernier = 0.0625
Gmin = 0.00100083
vernier = 0.03125
vernier = 0.015625
vernier = 0.0078125
vernier = 0.00390625
vernier = 0.00195313
Gmin = 0.00100083
vernier = 0.000976563
vernier = 0.000488281
Gmin = 0
Gmin stepping failed

Starting source stepping with srcstepmethod=0
Source Step = 3.0303%
vernier = 0.25
Source Step = 3.97727%
Source Step = 5.87121%
Source Step = 7.76515%
Source Step = 9.65909%
Source Step = 11.553%
vernier = 0.09375
Source Step = 13.8258%
Source Step = 16.6667%
Source Step = 19.5076%
Source Step = 22.3485%
Source Step = 25.1894%
vernier = 0.140625
Source Step = 28.4564%
Source Step = 32.7178%
Source Step = 36.9792%
Source Step = 41.2405%
Source Step = 43.804%
Source Step = 43.8706%
Source Step = 43.9372%
Source Step = 44.0038%
Source Step = 44.0703%
Source Step = 44.1369%
vernier = 0.0032959
Source Step = 44.2202%
Source Step = 44.32%
Source Step = 44.4199%
Source Step = 44.5198%
Source Step = 44.6197%
vernier = 0.00494385
Source Step = 44.7395%
Source Step = 44.8893%
Source Step = 45.0391%
Source Step = 45.189%
Source Step = 45.3388%
vernier = 0.00741577
Source Step = 45.511%
Source Step = 45.7358%
Source Step = 45.9605%
Source Step = 46.1852%
Source Step = 46.4099%
vernier = 0.0111237
Source Step = 46.6571%
Source Step = 46.9942%
Source Step = 47.3313%
Source Step = 47.6684%
Source Step = 48.0054%
vernier = 0.0166855
Source Step = 48.3594%
Source Step = 48.865%
Source Step = 49.3706%
Source Step = 49.8762%
Source Step = 50.3819%
Source Step = 50.8875%
vernier = 0.0250282
Source Step = 51.6459%
Source Step = 52.4043%
Source Step = 53.1628%
Source Step = 53.9212%
Source Step = 54.6796%
vernier = 0.0375423
Source Step = 55.7794%
Source Step = 56.917%
Source Step = 58.0547%
Source Step = 59.1923%
Source Step = 60.33%
vernier = 0.0563135
Source Step = 61.9227%
Source Step = 63.6291%
Source Step = 65.3356%
Source Step = 67.0421%
Source Step = 68.7485%
vernier = 0.0844703
Source Step = 71.0523%
Source Step = 73.612%
Source Step = 76.1717%
Source Step = 78.7314%
Source Step = 81.2911%
vernier = 0.126705
Source Step = 84.6187%
Source Step = 88.4583%
Source Step = 92.2978%
Source Step = 92.7178%
Source Step = 92.7778%
Source Step = 92.8378%
Source Step = 92.8978%
Source Step = 92.9577%
Source Step = 93.0177%
Source Step = 93.0777%
Source Step = 93.1377%
Source Step = 93.1977%
Source Step = 93.2577%
Source Step = 93.3177%
Source Step = 93.3777%
Source Step = 93.4377%
Source Step = 93.4977%
Source Step = 93.5577%
Source Step = 93.6177%
Source Step = 93.6777%
Source Step = 93.7377%
Source Step = 93.7977%
Source Step = 93.8576%
Source Step = 93.9176%
Source Step = 93.9776%
Source Step = 94.0376%
Source Step = 94.0976%
Source Step = 94.1576%
Source Step = 94.2176%
Source Step = 94.2776%
Source Step = 94.3376%
Starting source stepping with srcstepmethod=1
Source Step = 3.0303%
Source Step = 33.3333%
Source Step = 63.6364%
Source Step = 93.9394%
Source Step = 100%
vernier = 0.015625
Source Step = 100%
Source stepping failed

Pseudo transient terminated at 103.094 s, solution accepted ready or not!
Heightened Def Con from 13.4187 +to 13.4187
Heightened Def Con from 13.4287 to 13.4287

Date: Sat Aug 29 20:59:32 2020
Total elapsed time: 47.707 seconds.

tnom = 27
temp = 27
method = modified trap
totiter = 172973
traniter = 109144
tranpoints = 53433
accept = 53161
rejected = 1251
matrix size = 298
fillins = 741
solver = Normal
Thread vector: 70.0/25.6[4] 18.1/8.7[4] 93.8/53.9[4] 5.6/58.4[1]  2592/500
Matrix Compiler1: 73.65 KB object code size  46.2/23.1/[13.2]
Matrix Compiler2: 37.83 KB object code size  25.9/17.3/[8.5]

