Circuit: * C:\Users\dvone\Desktop\Engineering 3.2\E-Design 344\GitRepo\E344\Python\Assignment3\E344_A3_heart.asc

Early termination of direct N-R iteration.
Direct Newton iteration failed to find .op point.  (Use ".option noopiter" to skip.)
Starting Gmin stepping
Gmin = 10
vernier = 0.5
vernier = 0.25
vernier = 0.125
Gmin = 5.5165
vernier = 0.0625
vernier = 0.03125
vernier = 0.015625
vernier = 0.0078125
Gmin = 5.49501
vernier = 0.00390625
vernier = 0.00195313
vernier = 0.000976563
vernier = 0.000488281
Gmin = 5.50104
Gmin = 0
Gmin stepping failed

Starting source stepping with srcstepmethod=0
Source Step = 3.0303%
Source Step = 33.3333%
Source Step = 63.6364%
Source Step = 93.9394%
Source stepping succeeded in finding the operating point.

Heightened Def Con from 0.0532728 to 0.0532728
Heightened Def Con from 0.0534039 to 0.0534039
Heightened Def Con from 1.04471 to 1.04471
Heightened Def Con from 2.06719 to 2.06719
Heightened Def Con from 3.06163 to 3.06163
Heightened Def Con from 3.06164 to 3.06164
Heightened Def Con from 4.0353 to 4.0353
Heightened Def Con from 5.04391 to 5.04391
Heightened Def Con from 5.04392 to 5.04392

Date: Mon Oct 12 23:18:46 2020
Total elapsed time: 11.200 seconds.

tnom = 27
temp = 27
method = modified trap
totiter = 61532
traniter = 59427
tranpoints = 27974
accept = 27551
rejected = 432
matrix size = 114
fillins = 1154
solver = Normal
Thread vector: 868.5/48.2[3] 18.3/13.0[3] 11.8/5.7[3] 14.7/11.1[3]  2592/500
Matrix Compiler1: 201.47 KB object code size  80.0/43.5/[31.7]
Matrix Compiler2: 29.70 KB object code size  108.1/7.9/[6.6]

