Circuit: **********

Fatal Error: Missing expression in "{vmax=???trr=???imax=???}"
