Circuit: * C:\Users\dvone\Desktop\Engineering 3.2\E-Design 344\GitRepo\E344\LTSpice\Temperature Sensor Circuits\_Filter_TL2272.asc

WARNING: Less than two connections to node NC_02.  This node is used by R:U1:35.
WARNING: Less than two connections to node NC_01.  This node is used by R:U1:34.
WARNING: Less than two connections to node N005.  This node is used by V2.
Direct Newton iteration failed to find .op point.  (Use ".option noopiter" to skip.)
Starting Gmin stepping
Gmin = 10
Gmin = 1.07374
Gmin = 0.115292
Gmin = 0.0123794
vernier = 0.5
vernier = 0.25
Gmin = 0.00449161
vernier = 0.333333
vernier = 0.444444
Gmin = 0.0020849
vernier = 0.592592
vernier = 0.296296
vernier = 0.148148
Gmin = 0.00107226
vernier = 0.074074
vernier = 0.037037
vernier = 0.0185185
Gmin = 0.00100122
vernier = 0.00925925
vernier = 0.00462963
vernier = 0.00231481
vernier = 0.00115741
Gmin = 0.000999769
vernier = 0.000578703
vernier = 0.000434027
Gmin = 0
Gmin stepping failed

Starting source stepping with srcstepmethod=0
Source Step = 3.0303%
vernier = 0.25
Source Step = 0.378788%
Source Step = 0.852273%
Source Step = 1.32576%
Source Step = 1.79924%
Source Step = 2.27273%
vernier = 0.0234375
Source Step = 2.91193%
Source Step = 3.62216%
Source Step = 4.33239%
Source Step = 5.04261%
Source Step = 5.75284%
vernier = 0.0351563
Source Step = 6.67614%
Source Step = 7.74148%
Source Step = 8.80682%
Source Step = 9.87216%
Source Step = 10.9375%
vernier = 0.0527344
Source Step = 12.2692%
Source Step = 13.8672%
Source Step = 15.4652%
Source Step = 17.0632%
Source Step = 18.6612%
vernier = 0.0791016
Source Step = 20.5788%
Source Step = 20.6051%
Source Step = 20.6425%
Source Step = 20.68%
Source Step = 20.7174%
Source Step = 20.7549%
Source Step = 20.7923%
vernier = 0.00185394
Source Step = 20.8485%
Source Step = 20.9047%
Source Step = 20.9609%
Source Step = 21.017%
Source Step = 21.0732%
vernier = 0.00278091
Source Step = 21.1547%
Source Step = 21.239%
Source Step = 21.3232%
Source Step = 21.4075%
Source Step = 21.4918%
vernier = 0.00417137
Source Step = 21.6097%
Source Step = 21.7361%
Source Step = 21.8626%
Source Step = 21.989%
Source Step = 22.1154%
vernier = 0.00625706
Source Step = 22.286%
Source Step = 22.4756%
Source Step = 22.6652%
Source Step = 22.8548%
Source Step = 23.0444%
vernier = 0.00938559
Source Step = 23.2909%
Source Step = 23.5753%
Source Step = 23.8598%
Source Step = 24.1442%
Source Step = 24.4286%
vernier = 0.0140784
Source Step = 24.7841%
Source Step = 25.2107%
Source Step = 25.6373%
Source Step = 26.0639%
Source Step = 26.4906%
vernier = 0.0211176
Source Step = 27.0025%
Source Step = 27.6424%
Source Step = 28.2824%
Source Step = 28.9223%
Source Step = 29.5622%
vernier = 0.0316764
Source Step = 30.2981%
Source Step = 31.258%
Source Step = 32.2179%
Source Step = 33.1778%
Source Step = 34.1377%
vernier = 0.0475145
Source Step = 35.1936%
Source Step = 36.6334%
Source Step = 38.0732%
Source Step = 39.5131%
Source Step = 40.9529%
vernier = 0.0712718
Source Step = 42.4647%
Source Step = 44.6245%
Source Step = 46.7842%
Source Step = 48.944%
Source Step = 51.1037%
Source Step = 53.2635%
vernier = 0.106908
Source Step = 56.5031%
Source Step = 59.7427%
Source Step = 62.9824%
Source Step = 66.222%
Source Step = 69.4616%
vernier = 0.160362
Source Step = 74.1591%
Source Step = 79.0185%
Source Step = 83.878%
Source Step = 88.7374%
Source Step = 93.5968%
vernier = 0.0400904
Source Step = 93.1716%
Source Step = 93.2476%
Source Step = 93.3235%
Source Step = 93.3994%
Source Step = 93.4753%
vernier = 0.00375847
Source Step = 93.5627%
Source Step = 93.6766%
Source Step = 93.7905%
Source Step = 93.9043%
Source Step = 94.0182%
vernier = 0.00563771
Source Step = 94.1435%
Source Step = 94.3144%
Source Step = 94.4852%
Source Step = 94.656%
Source Step = 94.8269%
vernier = 0.00845657
Source Step = 95.0063%
Source Step = 95.2625%
Source Step = 95.5188%
Source Step = 95.775%
Source Step = 96.0313%
Source Step = 96.2876%
vernier = 0.0126848
Source Step = 96.6719%
Source Step = 97.0563%
Source Step = 97.4407%
Source Step = 97.8251%
Source Step = 98.2095%
vernier = 0.0190273
Source Step = 98.7669%
Source Step = 99.3435%
Source Step = 99.4371%
Source Step = 99.4732%
Source Step = 99.5092%
Source Step = 99.5453%
Source Step = 99.5813%
Source Step = 99.6173%
Source Step = 99.6534%
Source Step = 99.6894%
Source Step = 99.7254%
Source Step = 99.7615%
Source Step = 99.7975%
Source Step = 99.8335%
Source Step = 99.8696%
Source Step = 99.9056%
Source Step = 99.9417%
Source Step = 99.9777%
Starting source stepping with srcstepmethod=1
Source Step = 3.0303%
vernier = 0.25
Source stepping failed

Pseudo Transient failed in finding the operating point at 5.052 µs.
Trouble finding operating point....skipping operating point for Transient analysis.
Changing Tseed to 1e-007
Changing Tseed to 1e-009
Changing Tseed to 1e-006
Changing Tseed to 1e-010
Changing Tseed to 1e-005
Changing Tseed to 1e-011
Changing Tseed to 0.0001
Changing Tseed to 1e-012
Changing Tseed to 0.001
Changing Tseed to 1e-013
Changing Tseed to 0.01
Changing Tseed to 1e-014
Fatal Error: Analysis:  Time step too small; initial timepoint: trouble with u1:u5:s_vswitch_1-instance s:u1:u5:4

