Circuit: * C:\Users\dvone\Desktop\Engineering 3.2\E-Design 344\GitRepo\E344\LTSpice\Temperature Sensor Circuits\_Lowpass_Noninverting_TL2272 - Copy.asc

Direct Newton iteration for .op point succeeded.

Date: Mon Aug 10 12:12:29 2020
Total elapsed time: 0.177 seconds.

tnom = 27
temp = 27
method = modified trap
totiter = 3640
traniter = 3635
tranpoints = 1430
accept = 1289
rejected = 141
matrix size = 133
fillins = 166
solver = Normal
Thread vector: 14.4/9.9[3] 6.4/3.1[3] 4.9/2.4[3] 1.1/2.0[1]  2592/500
Matrix Compiler1: 16.13 KB object code size  11.4/5.7/[1.8]
Matrix Compiler2: 13.90 KB object code size  3.9/4.7/[1.5]

