Circuit: * C:\Users\dvone\Desktop\Engineering 3.2\E-Design 344\GitRepo\E344\LTSpice\Temperature Sensor Circuits\_Lowpass_Inverting_TL2272.asc

Direct Newton iteration failed to find .op point.  (Use ".option noopiter" to skip.)
Starting Gmin stepping
Gmin = 10
Gmin = 1.07374
Gmin = 0.115292
Gmin = 0.0123794
Gmin = 0.00132923
vernier = 0.5
Gmin = 0.000247786
vernier = 0.25
vernier = 0.125
vernier = 0.0625
vernier = 0.03125
Gmin = 0.000238415
vernier = 0.015625
vernier = 0.0078125
vernier = 0.0104167
Gmin = 0.00023671
vernier = 0.0138889
Gmin = 0.000229439
vernier = 0.0185185
vernier = 0.0246913
Gmin = 0.000217741
vernier = 0.0329218
vernier = 0.0438957
Gmin = 0.000200335
vernier = 0.0585276
Gmin = 0.00017577
vernier = 0.0780367
vernier = 0.104049
Gmin = 0.00014125
vernier = 0.138732
vernier = 0.184976
Gmin = 9.99019e-005
vernier = 0.246634
Gmin = 5.82281e-005
vernier = 0.328846
vernier = 0.438461
Gmin = 2.39095e-005
vernier = 0.584614
vernier = 0.779486
Gmin = 5.99966e-006
vernier = 1
Gmin = 7.71581e-007
vernier = 0.5
vernier = 0.25
vernier = 0.125
vernier = 0.0625
vernier = 0.03125
Gmin = 6.03021e-007
vernier = 0.0416667
vernier = 0.0555555
Gmin = 5.42737e-007
vernier = 0.074074
vernier = 0.037037
vernier = 0.0185185
Gmin = 5.06546e-007
vernier = 0.00925925
vernier = 0.00462963
vernier = 0.00231481
vernier = 0.00115741
vernier = 0.000578703
vernier = 0.000434027
Gmin = 0
Gmin stepping failed

Starting source stepping with srcstepmethod=0
Source Step = 3.0303%
vernier = 0.25
Source Step = 1.70455%
Source Step = 3.59848%
Source Step = 5.49242%
Source Step = 7.38636%
Source Step = 9.2803%
vernier = 0.09375
Source Step = 11.9318%
Source Step = 14.7727%
Source Step = 17.6136%
Source Step = 20.4545%
Source Step = 23.2955%
vernier = 0.140625
Source Step = 27.1307%
Source Step = 31.392%
Source Step = 35.6534%
Source Step = 39.9148%
Source Step = 44.1761%
vernier = 0.210938
Source Step = 49.7159%
Source Step = 56.108%
Source Step = 62.5%
Source Step = 68.892%
Source Step = 75.2841%
vernier = 0.316406
Source Step = 83.2741%
Source Step = 92.8622%
Source stepping succeeded in finding the operating point.


Date: Mon Aug 10 12:15:00 2020
Total elapsed time: 13.077 seconds.

tnom = 27
temp = 27
method = modified trap
totiter = 394506
traniter = 390545
tranpoints = 75287
accept = 49153
rejected = 26134
matrix size = 133
fillins = 255
solver = Normal
Thread vector: 17.4/13.0[3] 11.8/8.6[3] 12.7/8.7[3] 1.4/2.5[1]  2592/500
Matrix Compiler1: 22.30 KB object code size  14.6/6.8/[3.5]
Matrix Compiler2: 15.38 KB object code size  2.6/5.6/[1.9]

