Circuit: * C:\Users\dvone\Desktop\Engineering 3.2\E-Design 344\GitRepo\E344\LTSpice\Temperature Sensor Circuits\_Lowpass_Noninverting_TL2272.asc

Direct Newton iteration for .op point succeeded.

Date: Mon Aug 10 12:10:49 2020
Total elapsed time: 0.256 seconds.

tnom = 27
temp = 27
method = modified trap
totiter = 2261
traniter = 2238
tranpoints = 1120
accept = 1070
rejected = 50
matrix size = 27
fillins = 31
solver = Normal
Matrix Compiler1: 2.72 KB object code size  0.7/0.4/[0.3]
Matrix Compiler2: off  [0.3]/0.4/0.3

