Circuit: * C:\Users\dvone\Desktop\Engineering 3.2\E-Design 344\GitRepo\E344\LTSpice\Temperature Sensor Circuits\_Noninverting_2nd_Order_TL081.asc

WARNING: Less than two connections to node 9V.  This node is used by R_SENSE.
Direct Newton iteration for .op point succeeded.

Date: Mon Aug 10 13:43:29 2020
Total elapsed time: 0.402 seconds.

tnom = 27
temp = 27
method = modified trap
totiter = 10112
traniter = 10088
tranpoints = 5045
accept = 5045
rejected = 0
matrix size = 36
fillins = 46
solver = Normal
Matrix Compiler1: 3.91 KB object code size  1.4/0.8/[0.5]
Matrix Compiler2: 3.46 KB object code size  0.6/0.9/[0.6]

