Circuit: * C:\Users\dvone\Desktop\Engineering 3.2\E-Design 344\GitRepo\E344\LTSpice\Temperature Sensor Circuits\_Sensor_TLC2272.asc

WARNING: Less than two connections to node NC_01.  This node is used by V5.
Direct Newton iteration failed to find .op point.  (Use ".option noopiter" to skip.)
Starting Gmin stepping
Gmin = 10
Gmin = 1.07374
Gmin = 0.115292
Gmin = 0.0123794
Gmin = 0.00132923
vernier = 0.5
vernier = 0.25
vernier = 0.125
vernier = 0.0625
Gmin = 0.00100083
vernier = 0.03125
vernier = 0.015625
vernier = 0.0078125
vernier = 0.00390625
vernier = 0.00195313
Gmin = 0.00100083
vernier = 0.000976563
vernier = 0.000488281
Gmin = 0
Gmin stepping failed

Starting source stepping with srcstepmethod=0
Source Step = 3.0303%
vernier = 0.25
Source Step = 1.70455%
Source Step = 3.59848%
Source Step = 5.49242%
Source Step = 7.38636%
Source Step = 8.19129%
vernier = 0.000976563
Source Step = 8.20904%
Source Step = 8.23864%
Source Step = 8.26823%
Source Step = 8.29782%
Source Step = 8.32741%
vernier = 0.00146484
Source Step = 8.36737%
Source Step = 8.41175%
Source Step = 8.45614%
Source Step = 8.50053%
Source Step = 8.54492%
vernier = 0.00219727
Source Step = 8.60263%
Source Step = 8.66921%
Source Step = 8.7358%
Source Step = 8.80238%
Source Step = 8.86896%
vernier = 0.0032959
Source Step = 8.95219%
Source Step = 9.05207%
Source Step = 9.15194%
Source Step = 9.25182%
Source Step = 9.3517%
vernier = 0.00494385
Source Step = 9.47155%
Source Step = 9.62136%
Source Step = 9.77117%
Source Step = 9.92099%
Source Step = 10.0708%
vernier = 0.00741577
Source Step = 10.2431%
Source Step = 10.4678%
Source Step = 10.6925%
Source Step = 10.9172%
Source Step = 11.142%
vernier = 0.0111237
Source Step = 11.3892%
Source Step = 11.7262%
Source Step = 12.0633%
Source Step = 12.4004%
Source Step = 12.7375%
vernier = 0.0166855
Source Step = 13.0914%
Source Step = 13.597%
Source Step = 14.1027%
Source Step = 14.6083%
Source Step = 15.1139%
Source Step = 15.6195%
vernier = 0.0250282
Source Step = 16.378%
Source Step = 17.1364%
Source Step = 17.8948%
Source Step = 18.6532%
Source Step = 19.4117%
vernier = 0.0375423
Source Step = 20.5114%
Source Step = 21.649%
Source Step = 22.7867%
Source Step = 23.9243%
Source Step = 25.062%
vernier = 0.0563135
Source Step = 26.6547%
Source Step = 27.3933%
Source Step = 27.4199%
Source Step = 27.4466%
Source Step = 27.4733%
Source Step = 27.4999%
Source Step = 27.5266%
vernier = 0.00131985
Source Step = 27.5666%
Source Step = 27.6066%
Source Step = 27.6466%
Source Step = 27.6866%
Source Step = 27.7266%
vernier = 0.00197977
Source Step = 27.7846%
Source Step = 27.8446%
Source Step = 27.9046%
Source Step = 27.9645%
Source Step = 28.0245%
vernier = 0.00296966
Source Step = 28.1085%
Source Step = 28.1985%
Source Step = 28.2885%
Source Step = 28.3785%
Source Step = 28.4685%
vernier = 0.00445449
Source Step = 28.59%
Source Step = 28.725%
Source Step = 28.8599%
Source Step = 28.9949%
Source Step = 29.1299%
vernier = 0.00668173
Source Step = 29.3054%
Source Step = 29.5079%
Source Step = 29.7103%
Source Step = 29.9128%
Source Step = 30.1153%
vernier = 0.0100226
Source Step = 30.3684%
Source Step = 30.6721%
Source Step = 30.9758%
Source Step = 31.2795%
Source Step = 31.5833%
vernier = 0.0150339
Source Step = 31.9477%
Source Step = 32.4033%
Source Step = 32.8589%
Source Step = 33.3144%
Source Step = 33.77%
vernier = 0.0225508
Source Step = 34.2939%
Source Step = 34.9773%
Source Step = 35.6606%
Source Step = 36.344%
Source Step = 37.0273%
vernier = 0.0338263
Source Step = 37.779%
Source Step = 38.8041%
Source Step = 39.8291%
Source Step = 40.8542%
Source Step = 41.8792%
vernier = 0.0507394
Source Step = 42.9555%
Source Step = 44.493%
Source Step = 46.0306%
Source Step = 47.5682%
Source Step = 49.1057%
Source Step = 50.6433%
vernier = 0.0761091
Source Step = 52.9496%
Source Step = 55.2559%
Source Step = 57.5623%
Source Step = 59.8686%
Source Step = 62.1749%
vernier = 0.114164
Source Step = 65.5191%
Source Step = 68.9786%
Source Step = 72.4381%
vernier = 0.0285409
Source Step = 72.1354%
Source Step = 72.1895%
Source Step = 72.2435%
Source Step = 72.2976%
Source Step = 72.3517%
vernier = 0.00267571
Source Step = 72.4219%
Source Step = 72.503%
Source Step = 72.5841%
Source Step = 72.6652%
Source Step = 72.7463%
vernier = 0.00401357
Source Step = 72.8476%
Source Step = 72.9692%
Source Step = 73.0909%
Source Step = 73.2125%
Source Step = 73.3341%
vernier = 0.00602035
Source Step = 73.48%
Source Step = 73.6625%
Source Step = 73.8449%
Source Step = 74.0274%
Source Step = 74.2098%
vernier = 0.00903052
Source Step = 74.4196%
Source Step = 74.6932%
Source Step = 74.9669%
Source Step = 75.2405%
Source Step = 75.5142%
vernier = 0.0135458
Source Step = 75.8152%
Source Step = 76.2257%
Source Step = 76.6362%
Source Step = 77.0466%
Source Step = 77.4571%
vernier = 0.0203187
Source Step = 77.8881%
Source Step = 78.5038%
Source Step = 79.1196%
Source Step = 79.7353%
Source Step = 80.351%
Source Step = 80.9667%
vernier = 0.030478
Source Step = 81.8903%
Source Step = 82.8139%
Source Step = 83.7374%
Source Step = 84.661%
Source Step = 85.5846%
vernier = 0.045717
Source Step = 86.9238%
Source Step = 88.3091%
Source Step = 89.6945%
Source Step = 90.6729%
Source Step = 90.7595%
Source Step = 90.8461%
Starting source stepping with srcstepmethod=1
Source Step = 3.0303%
Source Step = 33.3333%
Source Step = 63.6364%
Source Step = 93.9394%
Source Step = 100%
Source Step = 99.0089%
Source Step = 99.0385%
Source Step = 99.0681%
Source Step = 99.0977%
Source Step = 99.1272%
Source Step = 99.1568%
Source stepping failed

Pseudo Transient succeeded in finding the operating point at 321.78 ms.
Heightened Def Con from 0.0315895 to 0.0315895
Heightened Def Con from 0.0715875 to 0.0715875
Heightened Def Con from 0.0915955 +to 0.0915955

Date: Sun Aug 09 23:39:51 2020
Total elapsed time: 13.813 seconds.

tnom = 27
temp = 27
method = modified trap
totiter = 51040
traniter = 14904
tranpoints = 6195
accept = 5832
rejected = 710
matrix size = 169
fillins = 367
solver = Normal
Thread vector: 26.5/17.7[4] 14.1/6.1[4] 17.5/9.1[4] 2.0/3.0[1]  2592/500
Matrix Compiler1: 36.99 KB object code size  23.4/12.0/[6.1]
Matrix Compiler2: 20.63 KB object code size  7.8/8.4/[2.7]

