Circuit: * C:\Users\dvone\Desktop\Engineering 3.2\E-Design 344\GitRepo\E344\LTSpice\Temperature Sensor Circuits\_Sensor_TLC2272_Old.asc

WARNING: Less than two connections to node STIMULUS.  This node is used by V3.
Direct Newton iteration failed to find .op point.  (Use ".option noopiter" to skip.)
Starting Gmin stepping
Gmin = 10
Gmin = 1.07374
Gmin = 0.115292
Gmin = 0.0123794
Gmin = 0.00132923
vernier = 0.5
vernier = 0.25
Gmin = 0.000455489
vernier = 0.125
vernier = 0.0625
vernier = 0.03125
vernier = 0.015625
Gmin = 0.000460274
vernier = 0.0078125
vernier = 0.00390625
vernier = 0.00195313
vernier = 0.000976563
Gmin = 0.000459265
vernier = 0.000488281
Gmin = 0
Gmin stepping failed

Starting source stepping with srcstepmethod=0
Source Step = 3.0303%
vernier = 0.25
Source Step = 1.70455%
Source Step = 3.59848%
Source Step = 5.49242%
Source Step = 7.38636%
Source Step = 9.2803%
vernier = 0.09375
Source Step = 11.9318%
Source Step = 14.7727%
Source Step = 17.6136%
Source Step = 20.4545%
Source Step = 23.2955%
vernier = 0.140625
Source Step = 27.1307%
Source Step = 31.392%
Source Step = 35.6534%
Source Step = 39.9148%
Source Step = 44.1761%
vernier = 0.0351563
Source Step = 43.8033%
Source Step = 43.8699%
Source Step = 43.9364%
Source Step = 44.003%
Source Step = 44.0696%
Source Step = 44.1362%
vernier = 0.0032959
Source Step = 44.2361%
Source Step = 44.3359%
Source Step = 44.4358%
Source Step = 44.5357%
Source Step = 44.6356%
vernier = 0.00494385
Source Step = 44.7804%
Source Step = 44.9302%
Source Step = 45.08%
Source Step = 45.2298%
Source Step = 45.3796%
vernier = 0.00741577
Source Step = 45.5894%
Source Step = 45.8141%
Source Step = 46.0388%
Source Step = 46.2635%
Source Step = 46.4883%
vernier = 0.0111237
Source Step = 46.7916%
Source Step = 47.1287%
Source Step = 47.4658%
Source Step = 47.8029%
Source Step = 48.14%
vernier = 0.0166855
Source Step = 48.5782%
Source Step = 49.0838%
Source Step = 49.5894%
Source Step = 50.095%
Source Step = 50.6006%
vernier = 0.0250282
Source Step = 51.2327%
Source Step = 51.9911%
Source Step = 52.7495%
Source Step = 53.508%
Source Step = 54.2664%
vernier = 0.0375423
Source Step = 55.1765%
Source Step = 56.3142%
Source Step = 57.4518%
Source Step = 58.5894%
Source Step = 59.7271%
vernier = 0.0563135
Source Step = 61.0354%
Source Step = 62.7419%
Source Step = 64.4483%
Source Step = 66.1548%
Source Step = 67.8613%
vernier = 0.0844703
Source Step = 69.7384%
Source Step = 72.2981%
Source Step = 74.8578%
Source Step = 77.4175%
Source Step = 79.9772%
vernier = 0.126705
Source Step = 82.6649%
Source Step = 86.5045%
Source Step = 90.344%
Source Step = 94.1836%
Source Step = 94.2256%
Source Step = 94.2856%
Source Step = 94.3456%
Source Step = 94.4055%
Source Step = 94.4655%
Source Step = 94.5255%
Source Step = 94.5855%
Source Step = 94.6455%
Source Step = 94.7055%
Source Step = 94.7655%
Source Step = 94.8255%
Source Step = 94.8855%
Source Step = 94.9455%
Source Step = 95.0055%
Source Step = 95.0655%
Source Step = 95.1255%
Source Step = 95.1855%
Source Step = 95.2455%
Source Step = 95.3054%
Source Step = 95.3654%
Source Step = 95.4254%
Source Step = 95.4854%
Source Step = 95.5454%
Source Step = 95.6054%
Source Step = 95.6654%
Source Step = 95.7254%
Source Step = 95.7854%
Source Step = 95.8454%
Starting source stepping with srcstepmethod=1
Source Step = 3.0303%
Source Step = 33.3333%
Source Step = 63.6364%
Source Step = 93.9394%
Source Step = 100%
vernier = 0.25
Source Step = 99.0829%
Source Step = 99.1095%
Source stepping failed

Pseudo Transient succeeded in finding the operating point at 269.809 ms.
Heightened Def Con from 0.000442985 to 0.000442985
Heightened Def Con from 0.0604432 to 0.0604432
Heightened Def Con from 0.120443 +to 0.120443
Heightened Def Con from 0.200443 +to 0.200443
Heightened Def Con from 0.220443 to 0.220443
Heightened Def Con from 0.460443 to 0.460443

Date: Sun Aug 09 23:05:02 2020
Total elapsed time: 36.186 seconds.

tnom = 27
temp = 27
method = modified trap
totiter = 135547
traniter = 80601
tranpoints = 20423
accept = 15952
rejected = 5068
matrix size = 168
fillins = 400
solver = Normal
Thread vector: 58.2/43.0[4] 26.4/7.7[4] 17.6/12.5[4] 2.0/21.8[1]  2592/500
Matrix Compiler1: 41.38 KB object code size  25.6/12.2/[6.7]
Matrix Compiler2: 21.07 KB object code size  11.3/9.1/[3.5]

