Circuit: * C:\Users\dvone\Desktop\Engineering 3.2\E-Design 344\GitRepo\E344\LTSpice\Temperature Sensor Circuits\_Sensor_TLC2272_2ndOrder_TL081.asc

WARNING: Less than two connections to node NC_01.  This node is used by V5.
Early termination of direct N-R iteration.
Direct Newton iteration failed to find .op point.  (Use ".option noopiter" to skip.)
Starting Gmin stepping
Gmin = 10
vernier = 0.5
vernier = 0.25
vernier = 0.125
Gmin = 6.68666
vernier = 0.0625
vernier = 0.03125
vernier = 0.015625
vernier = 0.0078125
Gmin = 6.72377
vernier = 0.00390625
vernier = 0.00195313
vernier = 0.000976563
vernier = 0.000488281
Gmin = 6.72131
Gmin = 0
Gmin stepping failed

Starting source stepping with srcstepmethod=0
Source Step = 3.0303%
vernier = 0.25
Source Step = 7.57576%
Source Step = 15.1515%
Source Step = 22.7273%
Source Step = 30.303%
vernier = 0.0625
Source Step = 29.5662%
Source Step = 29.5958%
Source Step = 29.6254%
Source Step = 29.6549%
Source Step = 29.6845%
vernier = 0.00146484
Source Step = 29.723%
Source Step = 29.7674%
Source Step = 29.8118%
Source Step = 29.8562%
Source Step = 29.9006%
vernier = 0.00219727
Source Step = 29.9561%
Source Step = 30.0226%
Source Step = 30.0892%
Source Step = 30.1558%
Source Step = 30.2224%
Source Step = 30.289%
Source Step = 30.3556%
Source Step = 30.4221%
vernier = 0.0032959
Source Step = 30.5087%
Source Step = 30.6086%
Source Step = 30.7085%
Source Step = 30.8083%
Source Step = 30.9082%
vernier = 0.00494385
Source Step = 31.033%
Source Step = 31.1829%
Source Step = 31.3327%
Source Step = 31.4825%
Source Step = 31.6323%
vernier = 0.00741577
Source Step = 31.8121%
Source Step = 32.0368%
Source Step = 32.2615%
Source Step = 32.4862%
Source Step = 32.711%
vernier = 0.0111237
Source Step = 32.9694%
Source Step = 33.3065%
Source Step = 33.6435%
Source Step = 33.9806%
Source Step = 34.3177%
vernier = 0.0166855
Source Step = 34.6885%
Source Step = 35.1941%
Source Step = 35.6997%
Source Step = 36.2054%
Source Step = 36.711%
vernier = 0.0250282
Source Step = 37.2419%
Source Step = 38.0003%
Source Step = 38.7587%
Source Step = 39.5172%
Source Step = 40.2756%
Source Step = 41.034%
vernier = 0.0375423
Source Step = 42.1717%
Source Step = 43.3093%
Source Step = 44.447%
Source Step = 45.5846%
Source Step = 46.7223%
vernier = 0.0563135
Source Step = 48.3719%
Source Step = 50.0783%
Source Step = 51.7848%
Source Step = 53.4913%
Source Step = 55.1977%
vernier = 0.0844703
Source Step = 57.5868%
Source Step = 60.1465%
Source Step = 62.7062%
Source Step = 65.2659%
Source Step = 67.8256%
vernier = 0.126705
Source Step = 71.2812%
Source Step = 72.6971%
Source Step = 72.937%
Source Step = 73.177%
Source Step = 73.417%
Source Step = 73.6569%
vernier = 0.0118786
Source Step = 73.9209%
Source Step = 74.2809%
Source Step = 74.6408%
Source Step = 75.0008%
Source Step = 75.3608%
vernier = 0.0178179
Source Step = 75.7387%
Source Step = 76.2786%
Source Step = 76.8186%
Source Step = 77.3585%
Source Step = 77.8985%
Source Step = 78.4384%
vernier = 0.0267269
Source Step = 79.2483%
Source Step = 80.0582%
Source Step = 80.8681%
Source Step = 81.678%
Source Step = 82.4879%
vernier = 0.0400904
Source Step = 83.6623%
Source Step = 84.8772%
Source Step = 86.092%
Source Step = 87.3069%
Source Step = 88.5217%
vernier = 0.0601356
Source Step = 90.2225%
vernier = 0.0150339
Source Step = 90.0631%
Starting source stepping with srcstepmethod=1
Source Step = 3.0303%
Source Step = 7.05492%
Source stepping failed

Pseudo transient terminated at 102.29 s, solution accepted ready or not!

Date: Mon Aug 10 13:50:18 2020
Total elapsed time: 10.781 seconds.

tnom = 27
temp = 27
method = modified trap
totiter = 28922
traniter = 10271
tranpoints = 5073
accept = 5065
rejected = 186
matrix size = 194
fillins = 589
solver = Normal
Thread vector: 50.5/39.2[4] 19.3/13.6[4] 19.1/13.2[4] 2.0/11.7[1]  2592/500
Matrix Compiler1: 57.09 KB object code size  29.2/17.1/[9.8]
Matrix Compiler2: 26.33 KB object code size  9.9/9.5/[3.0]

