Circuit: * C:\Users\dvone\Desktop\Engineering 3.2\E-Design 344\GitRepo\E344\LTSpice\Temperature Sensor Circuits\_Sensor_TLC2272_Filtered.asc

WARNING: Less than two connections to node NC_01.  This node is used by V5.
Early termination of direct N-R iteration.
Direct Newton iteration failed to find .op point.  (Use ".option noopiter" to skip.)
Starting Gmin stepping
Gmin = 10
Gmin = 1.07374
Gmin = 0.115292
Gmin = 0.0123794
Gmin = 0.00132923
vernier = 0.5
vernier = 0.25
vernier = 0.125
vernier = 0.0625
Gmin = 0.00100083
vernier = 0.03125
vernier = 0.015625
vernier = 0.0078125
Gmin = 0.000977776
vernier = 0.00390625
vernier = 0.00195313
vernier = 0.000976563
vernier = 0.000488281
Gmin = 0.000978371
Gmin = 0
Gmin stepping failed

Starting source stepping with srcstepmethod=0
Source Step = 3.0303%
vernier = 0.25
Source Step = 7.57576%
Source Step = 15.1515%
Source Step = 22.7273%
Source Step = 30.303%
vernier = 0.0625
Source Step = 29.5662%
Source Step = 29.5958%
Source Step = 29.6254%
Source Step = 29.6549%
Source Step = 29.6845%
vernier = 0.00146484
Source Step = 29.7186%
Source Step = 29.763%
Source Step = 29.8074%
Source Step = 29.8517%
Source Step = 29.8961%
vernier = 0.00219727
Source Step = 29.945%
Source Step = 30.0115%
Source Step = 30.0781%
Source Step = 30.1447%
Source Step = 30.2113%
vernier = 0.0032959
Source Step = 30.2812%
Source Step = 30.3811%
Source Step = 30.481%
Source Step = 30.5808%
Source Step = 30.6807%
Source Step = 30.7806%
vernier = 0.00494385
Source Step = 30.9304%
Source Step = 31.0802%
Source Step = 31.23%
Source Step = 31.3798%
Source Step = 31.5297%
vernier = 0.00741577
Source Step = 31.7469%
Source Step = 31.9716%
Source Step = 32.1963%
Source Step = 32.421%
Source Step = 32.6458%
vernier = 0.0111237
Source Step = 32.9604%
Source Step = 33.2975%
Source Step = 33.6345%
Source Step = 33.9716%
Source Step = 34.3087%
vernier = 0.0166855
Source Step = 34.7638%
Source Step = 35.2694%
Source Step = 35.775%
Source Step = 36.2806%
Source Step = 36.7862%
vernier = 0.0250282
Source Step = 37.4435%
Source Step = 38.202%
Source Step = 38.9604%
Source Step = 39.7188%
Source Step = 40.4773%
vernier = 0.0375423
Source Step = 41.4253%
Source Step = 42.563%
Source Step = 43.7006%
Source Step = 44.8382%
Source Step = 45.9759%
vernier = 0.0563135
Source Step = 47.3411%
Source Step = 49.0475%
Source Step = 50.754%
Source Step = 52.4605%
Source Step = 54.1669%
vernier = 0.0844703
Source Step = 56.1294%
Source Step = 58.6891%
Source Step = 61.2488%
Source Step = 63.8085%
Source Step = 66.3682%
vernier = 0.126705
Source Step = 69.1839%
Source Step = 73.0234%
Source Step = 76.863%
Source Step = 80.7026%
Source Step = 82.6343%
Source Step = 82.6943%
Source Step = 82.7543%
Source Step = 82.8143%
Source Step = 82.8743%
Source Step = 82.9343%
vernier = 0.00296966
Source Step = 83.0243%
Source Step = 83.1143%
Source Step = 83.2043%
Source Step = 83.2943%
Source Step = 83.3843%
vernier = 0.00445449
Source Step = 83.5147%
Source Step = 83.6497%
Source Step = 83.7847%
Source Step = 83.9197%
Source Step = 84.0547%
vernier = 0.00668173
Source Step = 84.2437%
Source Step = 84.4461%
Source Step = 84.6486%
Source Step = 84.8511%
Source Step = 85.0536%
vernier = 0.0100226
Source Step = 85.3269%
Source Step = 85.6306%
Source Step = 85.9343%
Source Step = 86.238%
Source Step = 86.5418%
vernier = 0.0150339
Source Step = 86.9366%
Source Step = 87.3922%
Source Step = 87.8477%
Source Step = 88.3033%
Source Step = 88.7589%
vernier = 0.0225508
Source Step = 89.3283%
Source Step = 90.0117%
Source Step = 90.174%
Source Step = 90.2167%
Source Step = 90.2594%
Source Step = 90.3021%
Source Step = 90.3448%
Source Step = 90.3876%
Source Step = 90.4303%
Source Step = 90.473%
Source Step = 90.5157%
Source Step = 90.5584%
Source Step = 90.6011%
Source Step = 90.6438%
Source Step = 90.6865%
Source Step = 90.7292%
Source Step = 90.7719%
Source Step = 90.8147%
Source Step = 90.8574%
Source Step = 90.9001%
Source Step = 90.9428%
Source Step = 90.9855%
Source Step = 91.0282%
Source Step = 91.0709%
Source Step = 91.1136%
Source Step = 91.1563%
Source Step = 91.199%
Source Step = 91.2418%
Source Step = 91.2845%
Source Step = 91.3272%
Source Step = 91.3699%
Source Step = 91.4126%
Source Step = 91.4553%
Source Step = 91.498%
Source Step = 91.5407%
Source Step = 91.5834%
Source Step = 91.6261%
Source Step = 91.6689%
Source Step = 91.7116%
Source Step = 91.7543%
Source Step = 91.797%
Source Step = 91.8397%
Source Step = 91.8824%
Source Step = 91.9251%
Source Step = 91.9678%
Source Step = 92.0105%
Source Step = 92.0532%
Source Step = 92.096%
Source Step = 92.1387%
Source Step = 92.1814%
Source Step = 92.2241%
Source Step = 92.2668%
Source Step = 92.3095%
Source Step = 92.3522%
Source Step = 92.3949%
Source Step = 92.4376%
Source Step = 92.4803%
Source Step = 92.5231%
Source Step = 92.5658%
Source Step = 92.6085%
Source Step = 92.6512%
Source Step = 92.6939%
Source Step = 92.7366%
Source Step = 92.7793%
Source Step = 92.822%
Source Step = 92.8647%
Source Step = 92.9074%
Source Step = 92.9502%
Source Step = 92.9929%
Source Step = 93.0356%
Source Step = 93.0783%
Source Step = 93.121%
Source Step = 93.1637%
Source Step = 93.2064%
Source Step = 93.2491%
Source Step = 93.2918%
Source Step = 93.3345%
Source Step = 93.3772%
Source Step = 93.42%
Source Step = 93.4627%
Source Step = 93.5054%
Source Step = 93.5481%
Source Step = 93.5908%
Source Step = 93.6335%
Source Step = 93.6762%
Source Step = 93.7189%
Source Step = 93.7616%
Source Step = 93.8043%
Source Step = 93.8471%
Source Step = 93.8898%
Source Step = 93.9325%
Source Step = 93.9752%
Source Step = 94.0179%
Source Step = 94.0606%
Starting source stepping with srcstepmethod=1
Source Step = 3.0303%
Source Step = 16.6667%
Source Step = 24.2424%
Source Step = 24.9053%
Source Step = 25.3788%
Source Step = 25.8523%
Source Step = 25.9115%
Source stepping failed

Pseudo transient terminated at 101.348 s, solution accepted ready or not!

Date: Mon Aug 10 00:29:05 2020
Total elapsed time: 53.126 seconds.

tnom = 27
temp = 27
method = modified trap
totiter = 85422
traniter = 10084
tranpoints = 5042
accept = 5042
rejected = 90
matrix size = 192
fillins = 609
solver = Normal
Thread vector: 52.6/36.5[4] 16.3/8.6[4] 9.2/6.5[4] 2.5/9.1[1]  2592/500
Matrix Compiler1: 60.97 KB object code size  32.3/17.3/[15.5]
Matrix Compiler2: 26.40 KB object code size  10.6/11.3/[5.2]

