Circuit: * C:\Users\dvone\Desktop\Engineering 3.2\E-Design 344\GitRepo\E344\LTSpice\Temperature Sensor Circuits\Draft1.asc

WARNING: Less than two connections to node NC_02.  This node is used by R:U1:35.
WARNING: Less than two connections to node NC_01.  This node is used by R:U1:34.
Direct Newton iteration failed to find .op point.  (Use ".option noopiter" to skip.)
Starting Gmin stepping
Gmin = 10
Gmin = 1.07374
Gmin = 0.115292
Gmin = 0.0123794
vernier = 0.5
vernier = 0.25
Gmin = 0.00449161
vernier = 0.333333
vernier = 0.444444
Gmin = 0.0020849
vernier = 0.592592
Gmin = 0.000617032
vernier = 0.790123
vernier = 1
Gmin = 9.32954e-005
Gmin = 1.00175e-005
vernier = 0.5
vernier = 0.25
Gmin = 2.62603e-006
vernier = 0.125
vernier = 0.0625
vernier = 0.03125
vernier = 0.015625
Gmin = 2.52672e-006
vernier = 0.0208333
Gmin = 2.41441e-006
vernier = 0.0277778
vernier = 0.037037
Gmin = 2.24137e-006
vernier = 0.0493827
vernier = 0.0658435
Gmin = 1.9927e-006
vernier = 0.0877914
Gmin = 1.64757e-006
vernier = 0.117055
vernier = 0.156073
Gmin = 1.20889e-006
vernier = 0.208098
vernier = 0.277464
Gmin = 7.4342e-007
vernier = 0.138732
vernier = 0.184976
Gmin = 5.47393e-007
vernier = 0.0924879
vernier = 0.046244
Gmin = 4.72204e-007
vernier = 0.0616586
vernier = 0.0822114
Gmin = 4.04216e-007
vernier = 0.109615
Gmin = 3.16829e-007
vernier = 0.146154
vernier = 0.194871
Gmin = 2.11192e-007
vernier = 0.259828
vernier = 0.346438
Gmin = 1.11486e-007
vernier = 0.461917
Gmin = 4.15105e-008
vernier = 0.615889
vernier = 0.821185
Gmin = 8.32933e-009
vernier = 0.410593
vernier = 0.205296
vernier = 0.102648
Gmin = 6.82584e-009
vernier = 0.136864
vernier = 0.182486
Gmin = 4.7573e-009
vernier = 0.243314
vernier = 0.324419
Gmin = 2.70084e-009
vernier = 0.432558
Gmin = 1.09443e-009
vernier = 0.576744
vernier = 0.768992
Gmin = 2.59725e-010
vernier = 1
Gmin = 3.21399e-011
Gmin = 3.45099e-012
vernier = 0.5
vernier = 0.25
Gmin = 1.73304e-012
vernier = 0.125
vernier = 0.0625
vernier = 0.03125
vernier = 0.015625
vernier = 0.0078125
vernier = 0.00390625
Gmin = 1.82527e-012
vernier = 0.00195313
vernier = 0.000976563
vernier = 0.000488281
Gmin = 0
Gmin stepping failed

Starting source stepping with srcstepmethod=0
Source Step = 3.0303%
vernier = 0.25
Source Step = 0.378788%
Source Step = 0.852273%
Source Step = 1.32576%
Source Step = 1.79924%
Source Step = 2.27273%
vernier = 0.0234375
Source Step = 2.91193%
Source Step = 3.62216%
Source Step = 4.33239%
Source Step = 5.04261%
Source Step = 5.75284%
vernier = 0.0351563
Source Step = 6.67614%
Source Step = 7.74148%
Source Step = 8.80682%
Source Step = 9.87216%
Source Step = 10.9375%
vernier = 0.0527344
Source Step = 12.2692%
Source Step = 13.8672%
Source Step = 15.4652%
Source Step = 17.0632%
Source Step = 18.6612%
vernier = 0.0791016
Source Step = 20.5788%
Source Step = 22.9759%
Source Step = 25.3729%
Source Step = 27.7699%
Source Step = 30.1669%
vernier = 0.118652
Source Step = 32.9235%
Source Step = 36.519%
Source Step = 40.1145%
Source Step = 43.71%
Source Step = 47.3056%
vernier = 0.177979
Source Step = 51.2607%
Source Step = 56.6539%
Source Step = 62.0472%
Source Step = 67.4405%
Source Step = 72.8338%
vernier = 0.266968
Source Step = 78.4968%
Source Step = 86.5867%
Source Step = 94.6766%
Source Step = 97.8115%
vernier = 0.00417137
Source Step = 97.8873%
Source Step = 98.0137%
Source Step = 98.1401%
Source Step = 98.2665%
Source Step = 98.3929%
vernier = 0.00625706
Source Step = 98.5762%
Source Step = 98.7658%
vernier = 0.00156426
Source Step = 98.7943%
Source Step = 98.8417%
Source Step = 98.8891%
Source Step = 98.9365%
Source Step = 98.9839%
Source Step = 99.0313%
Source Step = 99.0787%
Source Step = 99.1261%
Source Step = 99.1735%
Trouble finding operating point....skipping operating point for Transient analysis.

Date: Sun Aug 09 17:23:34 2020
Total elapsed time: 6.096 seconds.

tnom = 27
temp = 27
method = modified trap
totiter = 15359
traniter = 0
tranpoints = 1
accept = 1
rejected = 0
matrix size = 132
fillins = 257
solver = Normal

