Circuit: * C:\Users\dvone\Desktop\Engineering 3.2\E-Design 344\GitRepo\E344\LTSpice\Temperature Sensor Circuits\Test.asc

WARNING: Less than two connections to node 9V.  This node is used by R_SENSE.
Direct Newton iteration for .op point succeeded.

Date: Mon Aug 10 13:02:08 2020
Total elapsed time: 0.357 seconds.

tnom = 27
temp = 27
method = modified trap
totiter = 10111
traniter = 10088
tranpoints = 5045
accept = 5045
rejected = 0
matrix size = 34
fillins = 31
solver = Normal
Matrix Compiler1: 2.89 KB object code size  1.5/0.5/[0.3]
Matrix Compiler2: 3.04 KB object code size  0.4/0.5/[0.3]

