Circuit: * C:\Users\dvone\Desktop\Engineering 3.2\E-Design 344\GitRepo\E344\LTSpice\Temperature Sensor Circuits - Final\_Sensor_TLC2272_2ndOrder_TL081 - Copy.asc

Early termination of direct N-R iteration.
Direct Newton iteration failed to find .op point.  (Use ".option noopiter" to skip.)
Starting Gmin stepping
Gmin = 10
vernier = 0.5
vernier = 0.25
vernier = 0.125
Gmin = 5.5165
vernier = 0.0625
vernier = 0.03125
vernier = 0.015625
vernier = 0.0078125
Gmin = 5.49501
vernier = 0.00390625
vernier = 0.00195313
vernier = 0.000976563
vernier = 0.000488281
Gmin = 5.50104
Gmin = 0
Gmin stepping failed

Starting source stepping with srcstepmethod=0
Source Step = 3.0303%
vernier = 0.25
Source Step = 7.57576%
Source Step = 15.1515%
Source Step = 22.7273%
Source Step = 28.9773%
vernier = 0.015625
Source Step = 28.8116%
Source Step = 28.8411%
Source Step = 28.8707%
Source Step = 28.9003%
Source Step = 28.9299%
vernier = 0.00146484
Source Step = 28.964%
Source Step = 29.0083%
Source Step = 29.0527%
Source Step = 29.0971%
Source Step = 29.1415%
vernier = 0.00219727
Source Step = 29.1903%
Source Step = 29.2569%
Source Step = 29.3235%
Source Step = 29.3901%
Source Step = 29.4567%
vernier = 0.0032959
Source Step = 29.5266%
Source Step = 29.6265%
Source Step = 29.7263%
Source Step = 29.8262%
Source Step = 29.9261%
Source Step = 30.026%
vernier = 0.00494385
Source Step = 30.1758%
Source Step = 30.3256%
Source Step = 30.4754%
Source Step = 30.6252%
Source Step = 30.775%
vernier = 0.00741577
Source Step = 30.9923%
Source Step = 31.217%
Source Step = 31.4417%
Source Step = 31.6664%
Source Step = 31.8911%
vernier = 0.0111237
Source Step = 32.2058%
Source Step = 32.5428%
Source Step = 32.8799%
Source Step = 33.217%
Source Step = 33.5541%
vernier = 0.0166855
Source Step = 34.0091%
Source Step = 34.5148%
Source Step = 35.0204%
Source Step = 35.526%
Source Step = 36.0316%
vernier = 0.0250282
Source Step = 36.6889%
Source Step = 37.4474%
Source Step = 38.2058%
Source Step = 38.9642%
Source Step = 39.7227%
vernier = 0.0375423
Source Step = 40.6707%
Source Step = 41.8083%
Source Step = 42.946%
Source Step = 44.0836%
Source Step = 45.2213%
vernier = 0.0563135
Source Step = 46.5865%
Source Step = 48.2929%
Source Step = 49.9994%
Source Step = 51.7059%
Source Step = 53.4123%
vernier = 0.0844703
Source Step = 55.3748%
Source Step = 57.9345%
Source Step = 60.4942%
Source Step = 63.0539%
Source Step = 65.6136%
vernier = 0.126705
Source Step = 68.4293%
Source Step = 72.2688%
Source Step = 76.1084%
Source Step = 79.9479%
Source Step = 83.7875%
vernier = 0.190058
Source Step = 87.819%
Source Step = 91.2836%
Source Step = 91.3736%
Source Step = 91.4636%
Source Step = 91.5536%
Source Step = 91.6436%
Source Step = 91.7336%
Source Step = 91.8236%
Source Step = 91.9136%
Source Step = 92.0036%
Source Step = 92.0935%
Source Step = 92.1835%
Source Step = 92.2735%
Source Step = 92.3635%
Source Step = 92.4535%
Source Step = 92.5435%
Source Step = 92.6335%
Source Step = 92.7235%
Source Step = 92.8135%
Source Step = 92.9035%
Source Step = 92.9934%
Starting source stepping with srcstepmethod=1
Source Step = 3.0303%
Source Step = 25.7576%
vernier = 0.0625
Source Step = 25.5682%
Source Step = 25.6806%
Source stepping failed

Pseudo Transient succeeded in finding the operating point at 400.935 ms.

Date: Fri Aug 14 14:54:43 2020
Total elapsed time: 33.030 seconds.

tnom = 27
temp = 27
method = modified trap
totiter = 84743
traniter = 15670
tranpoints = 6852
accept = 6325
rejected = 1467
matrix size = 217
fillins = 742
solver = Normal
Thread vector: 31.8/23.8[4] 18.4/11.5[4] 57.5/21.2[4] 2.4/3.5[1]  2592/500
Matrix Compiler1: 79.69 KB object code size  47.6/22.2/[13.2]
Matrix Compiler2: 30.86 KB object code size  10.9/11.6/[3.8]

