Circuit: * C:\Users\dvone\Desktop\Engineering 3.2\E-Design 344\GitRepo\E344\LTSpice\Temperature Sensor Circuits - Final\von_Eschwege_21785155_A1 - ts.asc

WARNING: Less than two connections to node STIMULUS.  This node is used by V3.
Early termination of direct N-R iteration.
Direct Newton iteration failed to find .op point.  (Use ".option noopiter" to skip.)
Starting Gmin stepping
Gmin = 10
vernier = 0.5
vernier = 0.25
vernier = 0.125
Gmin = 6.68666
vernier = 0.0625
vernier = 0.03125
vernier = 0.015625
vernier = 0.0078125
Gmin = 6.72377
vernier = 0.00390625
vernier = 0.00195313
vernier = 0.000976563
vernier = 0.000488281
Gmin = 6.72131
Gmin = 0
Gmin stepping failed

Starting source stepping with srcstepmethod=0
Source Step = 3.0303%
vernier = 0.25
Source Step = 7.57576%
Source Step = 15.1515%
Source Step = 22.7273%
Source Step = 28.9773%
vernier = 0.015625
Source Step = 28.8116%
Source Step = 28.8411%
Source Step = 28.8707%
Source Step = 28.9003%
Source Step = 28.9299%
vernier = 0.00146484
Source Step = 28.9654%
Source Step = 29.0098%
Source Step = 29.0542%
Source Step = 29.0986%
Source Step = 29.143%
vernier = 0.00219727
Source Step = 29.194%
Source Step = 29.2606%
Source Step = 29.3272%
Source Step = 29.3938%
Source Step = 29.4604%
vernier = 0.0032959
Source Step = 29.5336%
Source Step = 29.6335%
Source Step = 29.7334%
Source Step = 29.8332%
Source Step = 29.9331%
vernier = 0.00494385
Source Step = 30.038%
Source Step = 30.1878%
Source Step = 30.3376%
Source Step = 30.4874%
Source Step = 30.6372%
Source Step = 30.7871%
vernier = 0.00741577
Source Step = 31.0118%
Source Step = 31.2365%
Source Step = 31.4612%
Source Step = 31.6859%
Source Step = 31.9107%
vernier = 0.0111237
Source Step = 32.2365%
Source Step = 32.5736%
Source Step = 32.9107%
Source Step = 33.2477%
Source Step = 33.5848%
vernier = 0.0166855
Source Step = 34.0567%
Source Step = 34.5624%
Source Step = 35.068%
Source Step = 35.5736%
Source Step = 36.0792%
vernier = 0.0250282
Source Step = 36.7618%
Source Step = 37.5202%
Source Step = 38.2787%
Source Step = 39.0371%
Source Step = 39.7955%
vernier = 0.0375423
Source Step = 40.7815%
Source Step = 41.9191%
Source Step = 43.0568%
Source Step = 44.1944%
Source Step = 45.3321%
vernier = 0.0563135
Source Step = 46.7541%
Source Step = 48.4606%
Source Step = 50.1671%
Source Step = 51.8736%
Source Step = 53.58%
vernier = 0.0844703
Source Step = 55.6278%
Source Step = 58.1875%
Source Step = 60.7472%
Source Step = 63.3069%
Source Step = 65.8666%
vernier = 0.126705
Source Step = 68.8103%
Source Step = 72.6498%
Source Step = 76.4894%
Source Step = 80.3289%
Source Step = 84.1685%
Source Step = 84.5885%
Source Step = 84.6484%
Source Step = 84.7084%
Source Step = 84.7684%
Source Step = 84.8284%
vernier = 0.00296966
Source Step = 84.8974%
Source Step = 84.9874%
Source Step = 85.0774%
Source Step = 85.1674%
Source Step = 85.2574%
vernier = 0.00445449
Source Step = 85.3564%
Source Step = 85.4913%
Source Step = 85.6263%
Source Step = 85.7613%
Source Step = 85.8963%
vernier = 0.00668173
Source Step = 86.038%
Source Step = 86.2405%
Source Step = 86.443%
Source Step = 86.6455%
Source Step = 86.8479%
Source Step = 87.0504%
vernier = 0.0100226
Source Step = 87.3541%
Source Step = 87.6578%
Source Step = 87.9616%
Source Step = 88.2653%
Source Step = 88.569%
vernier = 0.0150339
Source Step = 89.0094%
Source Step = 89.465%
Source Step = 89.9205%
Source Step = 90.2423%
Source Step = 90.2707%
Source Step = 90.2992%
Source Step = 90.3277%
Source Step = 90.3562%
Source Step = 90.3846%
Source Step = 90.4131%
Source Step = 90.4416%
Source Step = 90.4701%
Source Step = 90.4985%
Source Step = 90.527%
Source Step = 90.5555%
Source Step = 90.584%
Source Step = 90.6124%
Source Step = 90.6409%
Source Step = 90.6694%
Source Step = 90.6978%
Source Step = 90.7263%
Source Step = 90.7548%
Source Step = 90.7833%
Source Step = 90.8117%
Source Step = 90.8402%
Source Step = 90.8687%
Source Step = 90.8972%
Source Step = 90.9256%
Source Step = 90.9541%
Source Step = 90.9826%
Source Step = 91.0111%
Source Step = 91.0395%
Source Step = 91.068%
Source Step = 91.0965%
Source Step = 91.1249%
Source Step = 91.1534%
Source Step = 91.1819%
Source Step = 91.2104%
Source Step = 91.2388%
Source Step = 91.2673%
Source Step = 91.2958%
Source Step = 91.3243%
Source Step = 91.3527%
Source Step = 91.3812%
Source Step = 91.4097%
Source Step = 91.4381%
Source Step = 91.4666%
Source Step = 91.4951%
Source Step = 91.5236%
Source Step = 91.552%
Source Step = 91.5805%
Source Step = 91.609%
Source Step = 91.6375%
Source Step = 91.6659%
Source Step = 91.6944%
Source Step = 91.7229%
Source Step = 91.7514%
Source Step = 91.7798%
Source Step = 91.8083%
Source Step = 91.8368%
Starting source stepping with srcstepmethod=1
Source Step = 3.0303%
Source Step = 25.7576%
vernier = 0.0625
Source Step = 25.6274%
Source stepping failed

Pseudo Transient succeeded in finding the operating point at 569.235 ms.

Date: Sun Aug 16 20:30:42 2020
Total elapsed time: 67.661 seconds.

tnom = 27
temp = 27
method = modified trap
totiter = 72540
traniter = 10097
tranpoints = 5047
accept = 5045
rejected = 361
matrix size = 219
fillins = 838
solver = Normal
Thread vector: 46.3/26.9[4] 29.2/9.7[4] 14.3/7.7[4] 2.9/5.6[1]  2592/500
Matrix Compiler1: 91.54 KB object code size  47.1/31.8/[15.0]
Matrix Compiler2: 32.66 KB object code size  12.0/11.8/[4.4]

