Circuit: * C:\Users\dvone\Desktop\Engineering 3.2\E-Design 344\GitRepo\E344\LTSpice\Temperature Sensor Circuits - Final\von_Eschwege_21785155_A1.asc

Early termination of direct N-R iteration.
Direct Newton iteration failed to find .op point.  (Use ".option noopiter" to skip.)
Starting Gmin stepping
Increasing initial diagonal Gmin to 100
Gmin = 100
vernier = 0.5
vernier = 0.25
Gmin = 30.8405
vernier = 0.125
vernier = 0.0625
vernier = 0.03125
vernier = 0.015625
Gmin = 30.1306
vernier = 0.0078125
vernier = 0.00390625
vernier = 0.00195313
vernier = 0.000976563
Gmin = 30.0645
vernier = 0.000488281
Gmin = 0
Gmin stepping failed

Starting source stepping with srcstepmethod=0
Source Step = 3.0303%
vernier = 0.25
Source Step = 7.57576%
Source Step = 15.1515%
Source Step = 22.7273%
Source Step = 28.9773%
vernier = 0.015625
Source Step = 28.8116%
Source Step = 28.8411%
Source Step = 28.8707%
Source Step = 28.9003%
Source Step = 28.9299%
vernier = 0.00146484
Source Step = 28.9654%
Source Step = 29.0098%
Source Step = 29.0542%
Source Step = 29.0986%
Source Step = 29.143%
vernier = 0.00219727
Source Step = 29.194%
Source Step = 29.2606%
Source Step = 29.3272%
Source Step = 29.3938%
Source Step = 29.4604%
vernier = 0.0032959
Source Step = 29.5336%
Source Step = 29.6335%
Source Step = 29.7334%
Source Step = 29.8332%
Source Step = 29.9331%
vernier = 0.00494385
Source Step = 30.038%
Source Step = 30.1878%
Source Step = 30.3376%
Source Step = 30.4874%
Source Step = 30.6372%
Source Step = 30.7871%
vernier = 0.00741577
Source Step = 31.0118%
Source Step = 31.2365%
Source Step = 31.4612%
Source Step = 31.6859%
Source Step = 31.9107%
vernier = 0.0111237
Source Step = 32.2365%
Source Step = 32.5736%
Source Step = 32.9107%
Source Step = 33.2477%
Source Step = 33.5848%
vernier = 0.0166855
Source Step = 34.0567%
Source Step = 34.5624%
Source Step = 35.068%
Source Step = 35.5736%
Source Step = 36.0792%
vernier = 0.0250282
Source Step = 36.7618%
Source Step = 37.5202%
Source Step = 38.2787%
Source Step = 39.0371%
Source Step = 39.7955%
vernier = 0.0375423
Source Step = 40.7815%
Source Step = 41.9191%
Source Step = 43.0568%
Source Step = 44.1944%
Source Step = 45.3321%
vernier = 0.0563135
Source Step = 46.7541%
Source Step = 48.4606%
Source Step = 50.1671%
Source Step = 51.8736%
Source Step = 53.58%
vernier = 0.0844703
Source Step = 55.6278%
Source Step = 58.1875%
Source Step = 60.7472%
Source Step = 63.3069%
Source Step = 65.8666%
vernier = 0.126705
Source Step = 68.8103%
Source Step = 72.6498%
Source Step = 76.4894%
Source Step = 80.3289%
Source Step = 84.1685%
Source Step = 84.5885%
Source Step = 84.6484%
Source Step = 84.7084%
Source Step = 84.7684%
Source Step = 84.8284%
vernier = 0.00296966
Source Step = 84.9004%
Source Step = 84.9904%
Source Step = 85.0804%
Source Step = 85.1704%
Source Step = 85.2604%
vernier = 0.00445449
Source Step = 85.3639%
Source Step = 85.4988%
Source Step = 85.6338%
Source Step = 85.7688%
Source Step = 85.9038%
vernier = 0.00668173
Source Step = 86.0523%
Source Step = 86.2548%
Source Step = 86.4572%
Source Step = 86.6597%
Source Step = 86.8622%
vernier = 0.0100226
Source Step = 87.0748%
Source Step = 87.3785%
Source Step = 87.6822%
Source Step = 87.9859%
Source Step = 88.2896%
Source Step = 88.5934%
vernier = 0.0150339
Source Step = 89.0489%
Source Step = 89.5045%
Source Step = 89.9601%
Source Step = 90.111%
Source Step = 90.1395%
Source Step = 90.1679%
Source Step = 90.1964%
Source Step = 90.2249%
Source Step = 90.2534%
Source Step = 90.2818%
Source Step = 90.3103%
Source Step = 90.3388%
Source Step = 90.3672%
Source Step = 90.3957%
Source Step = 90.4242%
Source Step = 90.4527%
Source Step = 90.4811%
Starting source stepping with srcstepmethod=1
Source Step = 3.0303%
Source Step = 6.25%
vernier = 0.015625
Source Step = 6.1553%
Source stepping failed

Pseudo Transient succeeded in finding the operating point at 677.037 ms.
Changing Tseed to 1e-007
Changing Tseed to 1e-009
Changing Tseed to 1e-006
Changing Tseed to 1e-010
Changing Tseed to 1e-005
Changing Tseed to 1e-011
Changing Tseed to 0.0001
Changing Tseed to 1e-012
Changing Tseed to 0.001
Changing Tseed to 1e-013
Changing Tseed to 0.01
Changing Tseed to 1e-014
Heightened Def Con from 0 to 2e-009

Date: Sun Aug 16 22:31:11 2020
Total elapsed time: 32.477 seconds.

tnom = 27
temp = 27
method = modified trap
totiter = 44390
traniter = 10392
tranpoints = 5062
accept = 5046
rejected = 354
matrix size = 218
fillins = 855
solver = Normal
Thread vector: 55.9/35.7[4] 18.7/9.8[4] 14.8/7.5[4] 11.3/38.9[1]  2592/500
Matrix Compiler1: 94.33 KB object code size  42.3/22.6/[13.2]
Matrix Compiler2: 32.99 KB object code size  12.9/13.0/[8.4]

