Circuit: * C:\Users\dvone\Desktop\Engineering 3.2\E-Design 344\GitRepo\E344\LTSpice\Temperature Sensor Circuits - Final\von_Eschwege_21785155_A1 - fc.asc

WARNING: Less than two connections to node STIMULUS.  This node is used by V3.
Early termination of direct N-R iteration.
Direct Newton iteration failed to find .op point.  (Use ".option noopiter" to skip.)
Starting Gmin stepping
Gmin = 10
vernier = 0.5
vernier = 0.25
vernier = 0.125
Gmin = 5.5165
vernier = 0.0625
vernier = 0.03125
vernier = 0.015625
vernier = 0.0078125
Gmin = 5.49501
vernier = 0.00390625
vernier = 0.00195313
vernier = 0.000976563
vernier = 0.000488281
Gmin = 5.50104
Gmin = 0
Gmin stepping succeeded in finding the operating point.


Date: Sun Aug 16 15:49:03 2020
Total elapsed time: 0.417 seconds.

tnom = 27
temp = 27
method = trap
totiter = 1421
traniter = 0
tranpoints = 0
accept = 0
rejected = 0
matrix size = 88
fillins = 358
solver = Normal
Matrix Compiler1:    1902 opcodes
Matrix Compiler2: 13.55 KB object code size  3.2/5.1/[1.3]

