Circuit: * C:\Users\dvone\Desktop\Engineering 3.2\E-Design 344\GitRepo\E344\LTSpice\Temperature Sensor Circuits - Buffer\_Sensor_TLC2272_2ndOrder_TL081 - Copy.asc

Early termination of direct N-R iteration.
Direct Newton iteration failed to find .op point.  (Use ".option noopiter" to skip.)
Starting Gmin stepping
Gmin = 10
Gmin = 1.07374
Gmin = 0.115292
Gmin = 0.0123794
Gmin = 0.00132923
vernier = 0.5
vernier = 0.25
vernier = 0.125
vernier = 0.0625
Gmin = 0.00100083
vernier = 0.03125
vernier = 0.015625
vernier = 0.0078125
vernier = 0.00390625
vernier = 0.00195313
Gmin = 0.00100083
vernier = 0.000976563
vernier = 0.000488281
Gmin = 0
Gmin stepping failed

Starting source stepping with srcstepmethod=0
Source Step = 3.0303%
vernier = 0.25
Source Step = 1.70455%
Source Step = 3.59848%
Source Step = 5.49242%
Source Step = 7.38636%
Source Step = 9.2803%
vernier = 0.09375
Source Step = 11.9318%
Source Step = 14.7727%
Source Step = 17.6136%
Source Step = 20.4545%
Source Step = 23.2955%
vernier = 0.140625
Source Step = 27.1307%
Source Step = 31.392%
Source Step = 35.6534%
Source Step = 39.9148%
Source Step = 44.1761%
vernier = 0.0351563
Source Step = 43.8033%
Source Step = 43.8699%
Source Step = 43.9364%
Source Step = 44.003%
Source Step = 44.0696%
vernier = 0.0032959
Source Step = 44.1428%
Source Step = 44.2427%
Source Step = 44.3426%
Source Step = 44.4425%
Source Step = 44.5423%
vernier = 0.00494385
Source Step = 44.6472%
Source Step = 44.797%
Source Step = 44.9468%
Source Step = 45.0967%
Source Step = 45.2465%
Source Step = 45.3963%
vernier = 0.00741577
Source Step = 45.621%
Source Step = 45.8457%
Source Step = 46.0704%
Source Step = 46.2952%
Source Step = 46.5199%
vernier = 0.0111237
Source Step = 46.8457%
Source Step = 47.1828%
Source Step = 47.5199%
Source Step = 47.857%
Source Step = 48.1941%
vernier = 0.0166855
Source Step = 48.666%
Source Step = 49.1716%
Source Step = 49.6772%
Source Step = 50.1828%
Source Step = 50.6884%
vernier = 0.0250282
Source Step = 51.371%
Source Step = 52.1295%
Source Step = 52.8879%
Source Step = 53.6463%
Source Step = 54.4048%
vernier = 0.0375423
Source Step = 55.3907%
Source Step = 56.5284%
Source Step = 57.666%
Source Step = 58.8037%
Source Step = 59.9413%
vernier = 0.0563135
Source Step = 61.3634%
Source Step = 63.0698%
Source Step = 64.7763%
Source Step = 66.4828%
Source Step = 68.1892%
vernier = 0.0844703
Source Step = 70.237%
Source Step = 72.7967%
Source Step = 75.3564%
Source Step = 77.9161%
Source Step = 80.4758%
vernier = 0.126705
Source Step = 83.4195%
Source Step = 87.2591%
Source Step = 91.0986%
Source Step = 93.4083%
Source Step = 93.4683%
Source Step = 93.5283%
Source Step = 93.5883%
Source Step = 93.6483%
Source Step = 93.7083%
Source Step = 93.7683%
Source Step = 93.8283%
Source Step = 93.8883%
Source Step = 93.9483%
Source Step = 94.0083%
Source Step = 94.0683%
Source Step = 94.1283%
Source Step = 94.1883%
Source Step = 94.2482%
Source Step = 94.3082%
Source Step = 94.3682%
Source Step = 94.4282%
Source Step = 94.4882%
Source Step = 94.5482%
Source Step = 94.6082%
Source Step = 94.6682%
Source Step = 94.7282%
Source Step = 94.7882%
Source Step = 94.8482%
Source Step = 94.9082%
Source Step = 94.9682%
Source Step = 95.0282%
Source Step = 95.0882%
Source Step = 95.1481%
Source Step = 95.2081%
Source Step = 95.2681%
Source Step = 95.3281%
Source Step = 95.3881%
Source Step = 95.4481%
Source Step = 95.5081%
Source Step = 95.5681%
Source Step = 95.6281%
Source Step = 95.6881%
Source Step = 95.7481%
Source Step = 95.8081%
Source Step = 95.8681%
Source Step = 95.9281%
Source Step = 95.988%
Source Step = 96.048%
Source Step = 96.108%
Source Step = 96.168%
Source Step = 96.228%
Source Step = 96.288%
Source Step = 96.348%
Source Step = 96.408%
Source Step = 96.468%
Source Step = 96.528%
Source Step = 96.588%
Source Step = 96.648%
Source Step = 96.708%
Source Step = 96.768%
Source Step = 96.828%
Source Step = 96.8879%
Source Step = 96.9479%
Starting source stepping with srcstepmethod=1
Source Step = 3.0303%
Source Step = 33.3333%
Source Step = 63.6364%
Source Step = 93.9394%
Source Step = 99.9588%
Source Step = 99.9854%
Source stepping failed

Pseudo transient terminated at 101.632 s, solution accepted ready or not!

Date: Fri Aug 14 15:15:51 2020
Total elapsed time: 123.779 seconds.

tnom = 27
temp = 27
method = modified trap
totiter = 78963
traniter = 10221
tranpoints = 5064
accept = 5058
rejected = 457
matrix size = 557
fillins = 1796
solver = Normal
Thread vector: 154.6/111.3[4] 36.5/13.4[4] 39.8/15.1[4] 7.4/5.9[3]  2592/500
Matrix Compiler1: 227.95 KB object code size  145.0/72.8/[45.2]
Matrix Compiler2: 77.71 KB object code size  26.6/28.9/[12.2]

