Circuit: * C:\Users\dvone\Desktop\Engineering 3.2\E-Design 344\GitRepo\E344\LTSpice\Assignment 1\_Archive\Temperature Sensor Circuits - Buffer\Draft1.asc

Direct Newton iteration for .op point succeeded.
Heightened Def Con from 0.425884 to 0.425884

Date: Sun Sep 20 19:38:13 2020
Total elapsed time: 5.979 seconds.

tnom = 27
temp = 27
method = modified trap
totiter = 93729
traniter = 93724
tranpoints = 21647
accept = 16193
rejected = 5455
matrix size = 265
fillins = 387
solver = Normal
Thread vector: 46.8/14.1[4] 11.8/5.2[4] 11.3/4.2[4] 2.9/8.8[1]  2592/500
Matrix Compiler1: 37.06 KB object code size  24.4/11.5/[5.6]
Matrix Compiler2: 28.79 KB object code size  8.2/13.0/[4.3]

