Circuit: * C:\Users\dvone\Desktop\Engineering 3.2\E-Design 344\GitRepo\E344\LTSpice\Assignment 1\Temperature Sensor Circuits\Cutoff Frequency Measurement\von_Eschwege_21785155_A1 - fc.asc

WARNING: Node N001 is floating.

WARNING: Less than two connections to node STIMULUS.  This node is used by V3.
WARNING: Less than two connections to node 9V.  This node is used by R_SENSE.
Direct Newton iteration failed to find .op point.  (Use ".option noopiter" to skip.)
Starting Gmin stepping
Increasing initial diagonal Gmin to 100
Gmin = 100
vernier = 0.5
vernier = 0.25
Gmin = 34.2672
vernier = 0.125
vernier = 0.0625
vernier = 0.03125
vernier = 0.015625
Gmin = 33.0995
vernier = 0.0078125
vernier = 0.00390625
vernier = 0.00195313
Gmin = 32.9705
vernier = 0.000976563
vernier = 0.000488281
Gmin = 0
Gmin stepping succeeded in finding the operating point.


Date: Fri Oct 23 22:51:25 2020
Total elapsed time: 0.135 seconds.

tnom = 27
temp = 27
method = trap
totiter = 1527
traniter = 0
tranpoints = 0
accept = 0
rejected = 0
matrix size = 63
fillins = 135
solver = Normal
Matrix Compiler1:     582 opcodes
Matrix Compiler2: off  [0.8]/1.2/1.0

