Circuit: * C:\Users\dvone\Desktop\Engineering 3.2\E-Design 344\GitRepo\E344\LTSpice\Temperature Sensor Circuits - Final\von_Eschwege_21785155_A1 - noise.asc

WARNING: Less than two connections to node STIMULUS.  This node is used by V3.
Early termination of direct N-R iteration.
Direct Newton iteration failed to find .op point.  (Use ".option noopiter" to skip.)
Starting Gmin stepping
Gmin = 10
vernier = 0.5
vernier = 0.25
vernier = 0.125
Gmin = 6.68666
vernier = 0.0625
vernier = 0.03125
vernier = 0.015625
vernier = 0.0078125
Gmin = 6.72377
vernier = 0.00390625
vernier = 0.00195313
vernier = 0.000976563
vernier = 0.000488281
Gmin = 6.72131
Gmin = 0
Gmin stepping failed

Starting source stepping with srcstepmethod=0
Source Step = 3.0303%
Source Step = 33.3333%
Source Step = 45.4782%
Source Step = 45.5966%
Source Step = 45.715%
Source Step = 45.8333%
Source Step = 45.9517%
vernier = 0.00585938
Source Step = 46.076%
Source Step = 46.2536%
Source Step = 46.4311%
Source Step = 46.6087%
Source Step = 46.7862%
Source Step = 46.9638%
vernier = 0.00878906
Source Step = 47.2301%
Source Step = 47.4964%
Source Step = 47.7628%
Source Step = 48.0291%
Source Step = 48.2955%
vernier = 0.0131836
Source Step = 48.6816%
Source Step = 49.0811%
Source Step = 49.4806%
Source Step = 49.8801%
Source Step = 50.2797%
vernier = 0.0197754
Source Step = 50.839%
Source Step = 51.4382%
Source Step = 52.0375%
Source Step = 52.6367%
Source Step = 53.236%
vernier = 0.0296631
Source Step = 54.045%
Source Step = 54.9438%
Source Step = 55.8427%
Source Step = 56.7416%
Source Step = 57.6405%
vernier = 0.0444946
Source Step = 58.809%
Source Step = 60.1574%
Source Step = 61.5057%
Source Step = 62.854%
Source Step = 64.2023%
vernier = 0.0667419
Source Step = 65.8877%
Source Step = 67.9102%
Source Step = 69.9327%
Source Step = 71.9552%
Source Step = 73.9777%
vernier = 0.100113
Source Step = 76.4046%
Source Step = 79.4384%
Source Step = 82.4721%
Source Step = 85.5058%
Source Step = 88.5395%
vernier = 0.150169
Source Step = 92.0283%
Source Step = 96.5789%
Source stepping succeeded in finding the operating point.


Date: Mon Aug 17 01:10:34 2020
Total elapsed time: 1.148 seconds.

tnom = 27
temp = 27
method = modified trap
totiter = 5643
traniter = 2088
tranpoints = 1045
accept = 1045
rejected = 0
matrix size = 88
fillins = 476
solver = Normal
Matrix Compiler1: 52.90 KB object code size  17.9/9.0/[7.1]
Matrix Compiler2: 15.56 KB object code size  2.5/2.4/[1.6]

