Circuit: * C:\Users\dvone\Desktop\Engineering 3.2\E-Design 344\GitRepo\E344\LTSpice\Temperature Sensor Circuits - Current\_Sensor_TLC2272_2ndOrder_TL081 - Copy.asc

Early termination of direct N-R iteration.
Direct Newton iteration failed to find .op point.  (Use ".option noopiter" to skip.)
Starting Gmin stepping
Gmin = 10
vernier = 0.5
vernier = 0.25
vernier = 0.125
Gmin = 6.68666
vernier = 0.0625
vernier = 0.03125
vernier = 0.015625
vernier = 0.0078125
Gmin = 6.72377
vernier = 0.00390625
vernier = 0.00195313
vernier = 0.000976563
vernier = 0.000488281
Gmin = 6.72131
Gmin = 0
Gmin stepping failed

Starting source stepping with srcstepmethod=0
Source Step = 3.0303%
vernier = 0.25
Source Step = 1.70455%
Source Step = 3.59848%
Source Step = 5.49242%
Source Step = 7.38636%
Source Step = 9.2803%
vernier = 0.09375
Source Step = 11.9318%
Source Step = 14.7727%
Source Step = 17.6136%
Source Step = 20.4545%
Source Step = 20.7653%
Source Step = 20.8097%
Source Step = 20.854%
Source Step = 20.8984%
Source Step = 20.9428%
vernier = 0.00219727
Source Step = 20.9894%
Source Step = 21.056%
Source Step = 21.1226%
Source Step = 21.1892%
Source Step = 21.2558%
Source Step = 21.3224%
vernier = 0.0032959
Source Step = 21.4222%
Source Step = 21.5221%
Source Step = 21.622%
Source Step = 21.7219%
Source Step = 21.8217%
vernier = 0.00494385
Source Step = 21.9666%
Source Step = 22.1164%
Source Step = 22.2662%
Source Step = 22.416%
Source Step = 22.5658%
vernier = 0.00741577
Source Step = 22.7755%
Source Step = 23.0003%
Source Step = 23.225%
Source Step = 23.4497%
Source Step = 23.6744%
vernier = 0.0111237
Source Step = 23.9778%
Source Step = 24.3149%
Source Step = 24.652%
Source Step = 24.989%
Source Step = 25.3261%
vernier = 0.0166855
Source Step = 25.7643%
Source Step = 26.2699%
Source Step = 26.7756%
Source Step = 27.2812%
Source Step = 27.7868%
vernier = 0.0250282
Source Step = 28.4188%
Source Step = 29.1773%
Source Step = 29.9357%
Source Step = 30.6941%
Source Step = 31.4526%
vernier = 0.0375423
Source Step = 32.3627%
Source Step = 33.5003%
Source Step = 34.638%
Source Step = 35.7756%
Source Step = 36.9133%
vernier = 0.0563135
Source Step = 38.2216%
Source Step = 39.928%
Source Step = 41.6345%
Source Step = 43.341%
Source Step = 45.0474%
vernier = 0.0844703
Source Step = 46.9246%
Source Step = 49.4843%
Source Step = 52.044%
Source Step = 54.6037%
Source Step = 57.1634%
vernier = 0.126705
Source Step = 59.8511%
Source Step = 63.6906%
Source Step = 67.5302%
Source Step = 71.3697%
Source Step = 75.2093%
Source Step = 79.0489%
vernier = 0.190058
Source Step = 84.8082%
Source Step = 90.5675%
Source Step = 91.7644%
Source Step = 91.8544%
Source Step = 91.9444%
Source Step = 92.0344%
Source Step = 92.1244%
Source Step = 92.2143%
Source Step = 92.3043%
Source Step = 92.3943%
Source Step = 92.4843%
Source Step = 92.5743%
Source Step = 92.6643%
Source Step = 92.7543%
Source Step = 92.8443%
Source Step = 92.9343%
Source Step = 93.0242%
Source Step = 93.1142%
Source Step = 93.2042%
Source Step = 93.2942%
Source Step = 93.3842%
Source Step = 93.4742%
Source Step = 93.5642%
Source Step = 93.6542%
Source Step = 93.7442%
Source Step = 93.8342%
Source Step = 93.9241%
Source Step = 94.0141%
Source Step = 94.1041%
Source Step = 94.1941%
Source Step = 94.2841%
Source Step = 94.3741%
Source Step = 94.4641%
Source Step = 94.5541%
Source Step = 94.6441%
Source Step = 94.7341%
Source Step = 94.824%
Source Step = 94.914%
Source Step = 95.004%
Source Step = 95.094%
Source Step = 95.184%
Source Step = 95.274%
Source Step = 95.364%
Source Step = 95.454%
Source Step = 95.544%
Source Step = 95.6339%
Source Step = 95.7239%
Source Step = 95.8139%
Source Step = 95.9039%
Source Step = 95.9939%
Source Step = 96.0839%
Source Step = 96.1739%
Source Step = 96.2639%
Source Step = 96.3539%
Source Step = 96.4439%
Source Step = 96.5338%
Source Step = 96.6238%
Source Step = 96.7138%
Source Step = 96.8038%
Source Step = 96.8938%
Source Step = 96.9838%
Source Step = 97.0738%
Source Step = 97.1638%
Source Step = 97.2538%
Source Step = 97.3437%
Source Step = 97.4337%
Source Step = 97.5237%
Source Step = 97.6137%
Source Step = 97.7037%
Source Step = 97.7937%
Source Step = 97.8837%
Source Step = 97.9737%
Source Step = 98.0637%
Source Step = 98.1537%
Source Step = 98.2436%
Source Step = 98.3336%
Source Step = 98.4236%
Source Step = 98.5136%
Source Step = 98.6036%
Source Step = 98.6936%
Source Step = 98.7836%
Source Step = 98.8736%
Source Step = 98.9636%
Source Step = 99.0536%
Source Step = 99.1435%
Source Step = 99.2335%
Source Step = 99.3235%
Source Step = 99.4135%
Source Step = 99.5035%
Source Step = 99.5935%
Source Step = 99.6835%
Source Step = 99.7735%
Source Step = 99.8635%
Starting source stepping with srcstepmethod=1
Source Step = 3.0303%
Source Step = 25.7576%
Source Step = 30.303%
vernier = 0.015625
Source Step = 30.377%
Source Step = 30.4066%
Source stepping failed

Pseudo Transient succeeded in finding the operating point at 501.343 ms.
Heightened Def Con from 0.0178638 to 0.0178638
Heightened Def Con from 0.0178639 to 0.0178639
Heightened Def Con from 0.0178639 to 0.0178639
Heightened Def Con from 0.0458589 to 0.0458589
Heightened Def Con from 0.0458589 to 0.0458589
Heightened Def Con from 0.0458589 to 0.0458589
Heightened Def Con from 0.0458589 to 0.0458589
Heightened Def Con from 0.0458589 to 0.0458589
Heightened Def Con from 0.0458589 to 0.0458589

Date: Fri Aug 14 15:56:31 2020
Total elapsed time: 84.611 seconds.

tnom = 27
temp = 27
method = modified trap
totiter = 121435
traniter = 12187
tranpoints = 5383
accept = 5239
rejected = 828
matrix size = 323
fillins = 1039
solver = Normal
Thread vector: 44.0/29.1[4] 19.5/15.8[4] 26.6/16.9[4] 3.3/4.7[1]  2592/500
Matrix Compiler1: 113.22 KB object code size  51.7/28.9/[26.5]
Matrix Compiler2: 45.14 KB object code size  17.9/15.2/[5.5]

