Circuit: * C:\Users\dvone\Desktop\Engineering 3.2\E-Design 344\GitRepo\E344\LTSpice\Voltage Regulators\_LM2595_Switchmode_Regulator.asc

Questionable use of curly braces in "b§e_abmgate yint 0 v={if(v(a)>{{vthresh}}&v(b)>{{vthresh}},{{vdd}},{{vss}})}"
    Error: undefined symbol in: "if([v](a)>((vthresh))&v(b)>((vthresh)),((vdd)),((vss)))"
Questionable use of curly braces in "b§e_abmgate yint 0 v={if(v(a)>{{vthresh}}|v(b)>{{vthresh}}|v(c)>{{vthresh}},{{vdd}},{{vss}})}"
    Error: undefined symbol in: "if([v](a)>((vthresh))|v(b)>((vthresh))|v(c)>((vthresh)),((vdd)),((vss)))"
Questionable use of curly braces in "b§e_abmgate yint 0 v={if(v(a)>{{vthresh}},{{vdd}},{{vss}})}"
    Error: undefined symbol in: "if([v](a)>((vthresh)),((vdd)),((vss)))"
Direct Newton iteration for .op point succeeded.
Ignoring empty pin current: Ix(u1:fb)
Ignoring empty pin current: Ix(u1:fb)

Date: Sun Aug 09 10:28:44 2020
Total elapsed time: 26.338 seconds.

tnom = 27
temp = 27
method = modified trap
totiter = 1486575
traniter = 1486567
tranpoints = 465854
accept = 343577
rejected = 122277
matrix size = 101
fillins = 44
solver = Normal
Thread vector: 11.2/9.3[2] 5.0/4.5[1] 4.7/3.7[2] 0.4/2.1[1]  2592/500
Matrix Compiler1: 4.62 KB object code size  3.7/1.5/[0.6]
Matrix Compiler2: 7.09 KB object code size  2.1/1.7/[0.6]

