Circuit: * C:\Users\dvone\Desktop\Engineering 3.2\E-Design 344\GitRepo\E344\LTSpice\Voltage Regulators\_LM2595_Switchmode_Regulator.asc

Questionable use of curly braces in "b§e_abmgate yint 0 v={if(v(a)>{{vthresh}}&v(b)>{{vthresh}},{{vdd}},{{vss}})}"
    Error: undefined symbol in: "if([v](a)>((vthresh))&v(b)>((vthresh)),((vdd)),((vss)))"
Questionable use of curly braces in "b§e_abmgate yint 0 v={if(v(a)>{{vthresh}}|v(b)>{{vthresh}}|v(c)>{{vthresh}},{{vdd}},{{vss}})}"
    Error: undefined symbol in: "if([v](a)>((vthresh))|v(b)>((vthresh))|v(c)>((vthresh)),((vdd)),((vss)))"
Questionable use of curly braces in "b§e_abmgate yint 0 v={if(v(a)>{{vthresh}},{{vdd}},{{vss}})}"
    Error: undefined symbol in: "if([v](a)>((vthresh)),((vdd)),((vss)))"
Direct Newton iteration for .op point succeeded.
Ignoring empty pin current: Ix(u1:fb)
Ignoring empty pin current: Ix(u1:fb)

Date: Sun Aug 09 15:50:27 2020
Total elapsed time: 70.861 seconds.

tnom = 27
temp = 27
method = modified trap
totiter = 2971063
traniter = 2971055
tranpoints = 926269
accept = 687462
rejected = 238807
matrix size = 101
fillins = 44
solver = Normal
Thread vector: 17.4/13.4[2] 6.3/4.6[2] 6.4/4.3[2] 0.7/1.5[1]  2592/500
Matrix Compiler1: 4.62 KB object code size  3.6/2.0/[0.9]
Matrix Compiler2: 7.09 KB object code size  1.5/2.8/[0.8]

