Circuit: * C:\Users\dvone\Desktop\Engineering 3.2\E-Design 344\GitRepo\E344\LTSpice\Voltage Regulators\_LM2595_Switchmode_Regulator.asc

Questionable use of curly braces in "b§e_abmgate yint 0 v={if(v(a)>{{vthresh}}&v(b)>{{vthresh}},{{vdd}},{{vss}})}"
    Error: undefined symbol in: "if([v](a)>((vthresh))&v(b)>((vthresh)),((vdd)),((vss)))"
Questionable use of curly braces in "b§e_abmgate yint 0 v={if(v(a)>{{vthresh}}|v(b)>{{vthresh}}|v(c)>{{vthresh}},{{vdd}},{{vss}})}"
    Error: undefined symbol in: "if([v](a)>((vthresh))|v(b)>((vthresh))|v(c)>((vthresh)),((vdd)),((vss)))"
Questionable use of curly braces in "b§e_abmgate yint 0 v={if(v(a)>{{vthresh}},{{vdd}},{{vss}})}"
    Error: undefined symbol in: "if([v](a)>((vthresh)),((vdd)),((vss)))"
Direct Newton iteration for .op point succeeded.
Ignoring empty pin current: Ix(u1:fb)
Ignoring empty pin current: Ix(u1:fb)

Date: Fri Aug 14 17:10:48 2020
Total elapsed time: 65.864 seconds.

tnom = 27
temp = 27
method = modified trap
totiter = 3287780
traniter = 3287770
tranpoints = 1042730
accept = 764536
rejected = 278194
matrix size = 101
fillins = 44
solver = Normal
Thread vector: 19.9/14.8[2] 6.7/4.9[2] 3.2/6.7[1] 0.6/1.6[1]  2592/500
Matrix Compiler1: 4.62 KB object code size  4.0/1.9/[0.8]
Matrix Compiler2: 7.09 KB object code size  0.9/3.3/[0.8]

