Circuit: * C:\Users\dvone\Desktop\Engineering 3.2\E-Design 344\GitRepo\E344\LTSpice\Voltage Regulators\_LM7805_Linear_Regulator.asc

WARNING: Less than two connections to node N002.  This node is used by RL.
Direct Newton iteration failed to find .op point.  (Use ".option noopiter" to skip.)
Starting Gmin stepping
Gmin = 10
Gmin = 1.07374
Gmin = 0.115292
Gmin = 0.0123794
Gmin = 0.00132923
Gmin = 0.000142725
Gmin = 1.5325e-005
Gmin = 1.6455e-006
Gmin = 1.76685e-007
Gmin = 1.89714e-008
Gmin = 2.03704e-009
Gmin = 2.18725e-010
Gmin = 2.34854e-011
Gmin = 2.52173e-012
Gmin = 2.70769e-013
Gmin = 0
Gmin stepping succeeded in finding the operating point.


Date: Fri Aug 14 16:51:44 2020
Total elapsed time: 0.200 seconds.

tnom = 27
temp = 27
method = modified trap
totiter = 2611
traniter = 2082
tranpoints = 1042
accept = 1042
rejected = 0
matrix size = 30
fillins = 40
solver = Normal
Matrix Compiler1: 5.52 KB object code size  2.0/1.1/[0.7]
Matrix Compiler2: 3.62 KB object code size  1.1/0.8/[0.5]

