Circuit: * C:\Users\dvone\Desktop\Engineering 3.2\E-Design 344\GitRepo\E344\LTSpice\Voltage Regulators\Draft1.asc

Direct Newton iteration for .op point succeeded.

Date: Sat Aug 08 23:53:57 2020
Total elapsed time: 0.202 seconds.

tnom = 27
temp = 27
method = modified trap
totiter = 2099
traniter = 2096
tranpoints = 1049
accept = 1049
rejected = 0
matrix size = 3
fillins = 0
solver = Normal
Matrix Compiler1:       5 opcodes  0.0/[0.0]/0.1
Matrix Compiler2: off  [0.0]/0.1/0.1

