Circuit: * C:\Users\dvone\Desktop\Engineering 3.2\E-Design 344\GitRepo\E344\LTSpice\Temperature Sensor Circuits\_Sensor_TLC2272_2ndOrder_TL081.asc

V2: Removing PWL point (0.099,1.63)
V2: Removing PWL point (0.399,1.77)
Early termination of direct N-R iteration.
Direct Newton iteration failed to find .op point.  (Use ".option noopiter" to skip.)
Starting Gmin stepping
Gmin = 10
vernier = 0.5
vernier = 0.25
vernier = 0.125
Gmin = 6.68666
vernier = 0.0625
vernier = 0.03125
vernier = 0.015625
vernier = 0.0078125
Gmin = 6.72377
vernier = 0.00390625
vernier = 0.00195313
vernier = 0.000976563
vernier = 0.000488281
Gmin = 6.72131
Gmin = 0
Gmin stepping failed

Starting source stepping with srcstepmethod=0
Source Step = 3.0303%
vernier = 0.25
Source Step = 7.57576%
Source Step = 15.1515%
Source Step = 22.7273%
Source Step = 30.303%
vernier = 0.0625
Source Step = 31.4394%
Source Step = 33.3333%
Source Step = 35.2273%
Source Step = 37.1212%
Source Step = 39.0152%
vernier = 0.09375
Source Step = 41.7614%
Source Step = 44.6023%
Source Step = 47.4432%
Source Step = 50.2841%
Source Step = 53.125%
vernier = 0.140625
Source Step = 57.1023%
Source Step = 61.3636%
Source Step = 65.625%
Source Step = 69.8864%
Source Step = 74.1477%
vernier = 0.210938
Source Step = 79.9006%
Source Step = 83.7358%
vernier = 0.0131836
Source Step = 83.6958%
Source Step = 83.7957%
Source Step = 83.8956%
Source Step = 83.9955%
Source Step = 84.0953%
vernier = 0.00494385
Source Step = 84.2252%
Source Step = 84.375%
Source Step = 84.5248%
Source Step = 84.6746%
Source Step = 84.8244%
vernier = 0.00741577
Source Step = 85.0117%
Source Step = 85.2364%
Source Step = 85.4611%
Source Step = 85.6859%
Source Step = 85.9106%
vernier = 0.0111237
Source Step = 86.1803%
Source Step = 86.5173%
Source Step = 86.8544%
Source Step = 87.1915%
Source Step = 87.5286%
vernier = 0.0166855
Source Step = 87.9162%
Source Step = 88.4218%
Source Step = 88.9275%
Source Step = 89.4331%
Source Step = 89.9387%
vernier = 0.0250282
Source Step = 90.4949%
Source Step = 91.2533%
Source Step = 92.0117%
Source Step = 92.7702%
Source Step = 93.5286%
vernier = 0.0375423
Source Step = 94.325%
Source Step = 95.4626%
Source Step = 96.6003%
Source Step = 97.7379%
Source Step = 98.8755%
Source Step = 100%
vernier = 0.0563135
Source stepping succeeded in finding the operating point.


Date: Fri Aug 14 12:12:15 2020
Total elapsed time: 4.965 seconds.

tnom = 27
temp = 27
method = modified trap
totiter = 35935
traniter = 31438
tranpoints = 6967
accept = 6371
rejected = 596
matrix size = 192
fillins = 589
solver = Normal
Thread vector: 48.0/18.6[4] 16.1/7.6[4] 12.8/6.4[4] 2.0/3.5[1]  2592/500
Matrix Compiler1: 61.98 KB object code size  30.0/14.4/[9.4]
Matrix Compiler2: 26.28 KB object code size  9.2/9.7/[3.0]

