Circuit: * C:\Users\dvone\Desktop\Engineering 3.2\E-Design 344\GitRepo\E344\LTSpice\Assignment 1\Temperature Sensor Circuits\von_Eschwege_21785155_A1.asc

Early termination of direct N-R iteration.
Direct Newton iteration failed to find .op point.  (Use ".option noopiter" to skip.)
Starting Gmin stepping
Gmin = 10
vernier = 0.5
vernier = 0.25
vernier = 0.125
Gmin = 5.5165
vernier = 0.0625
vernier = 0.03125
vernier = 0.015625
vernier = 0.0078125
Gmin = 5.49501
vernier = 0.00390625
vernier = 0.00195313
vernier = 0.000976563
vernier = 0.000488281
Gmin = 5.50104
Gmin = 0
Gmin stepping failed

Starting source stepping with srcstepmethod=0
Source Step = 3.0303%
vernier = 0.25
Source Step = 7.57576%
Source Step = 15.1515%
Source Step = 22.7273%
Source Step = 28.9773%
vernier = 0.015625
Source Step = 28.8116%
Source Step = 28.8411%
Source Step = 28.8707%
Source Step = 28.9003%
Source Step = 28.9299%
vernier = 0.00146484
Source Step = 28.9654%
Source Step = 29.0098%
Source Step = 29.0542%
Source Step = 29.0986%
Source Step = 29.143%
vernier = 0.00219727
Source Step = 29.194%
Source Step = 29.2606%
Source Step = 29.3272%
Source Step = 29.3938%
Source Step = 29.4604%
vernier = 0.0032959
Source Step = 29.5336%
Source Step = 29.6335%
Source Step = 29.7334%
Source Step = 29.8332%
Source Step = 29.9331%
vernier = 0.00494385
Source Step = 30.038%
Source Step = 30.1878%
Source Step = 30.3376%
Source Step = 30.4874%
Source Step = 30.6372%
Source Step = 30.7871%
vernier = 0.00741577
Source Step = 31.0118%
Source Step = 31.2365%
Source Step = 31.4612%
Source Step = 31.6859%
Source Step = 31.9107%
vernier = 0.0111237
Source Step = 32.2365%
Source Step = 32.5736%
Source Step = 32.9107%
Source Step = 33.2477%
Source Step = 33.5848%
vernier = 0.0166855
Source Step = 34.0567%
Source Step = 34.5624%
Source Step = 35.068%
Source Step = 35.5736%
Source Step = 36.0792%
vernier = 0.0250282
Source Step = 36.7618%
Source Step = 37.5202%
Source Step = 38.2787%
Source Step = 39.0371%
Source Step = 39.7955%
vernier = 0.0375423
Source Step = 40.7815%
Source Step = 41.9191%
Source Step = 43.0568%
Source Step = 44.1944%
Source Step = 45.3321%
vernier = 0.0563135
Source Step = 46.7541%
Source Step = 48.4606%
Source Step = 50.1671%
Source Step = 51.8736%
Source Step = 53.58%
vernier = 0.0844703
Source Step = 55.6278%
Source Step = 58.1875%
Source Step = 60.7472%
Source Step = 63.3069%
Source Step = 65.8666%
vernier = 0.126705
Source Step = 68.8103%
Source Step = 72.6498%
Source Step = 76.4894%
Source Step = 80.3289%
Source Step = 84.1685%
Starting source stepping with srcstepmethod=1
Source Step = 3.0303%
Source Step = 21.2121%
Source Step = 24.5739%
vernier = 0.00390625
Source stepping failed

Pseudo Transient succeeded in finding the operating point at 502.275 ms.

Date: Fri Sep 18 21:27:40 2020
Total elapsed time: 16.197 seconds.

tnom = 27
temp = 27
method = modified trap
totiter = 194077
traniter = 10091
tranpoints = 5042
accept = 5042
rejected = 5493
matrix size = 217
fillins = 680
solver = Normal
Thread vector: 24.8/18.9[4] 16.8/6.1[4] 14.8/8.4[4] 2.1/3.1[1]  2592/500
Matrix Compiler1: 69.21 KB object code size  37.7/20.0/[11.3]
Matrix Compiler2: 29.94 KB object code size  11.7/12.2/[3.3]

