Circuit: * C:\Users\dvone\Desktop\Engineering 3.2\E-Design 344\GitRepo\E344\LTSpice\Voltage Regulators\_LM2595_Switchmode_Regulator.asc

Questionable use of curly braces in "b§e_abmgate yint 0 v={if(v(a)>{{vthresh}}&v(b)>{{vthresh}},{{vdd}},{{vss}})}"
    Error: undefined symbol in: "if([v](a)>((vthresh))&v(b)>((vthresh)),((vdd)),((vss)))"
Questionable use of curly braces in "b§e_abmgate yint 0 v={if(v(a)>{{vthresh}}|v(b)>{{vthresh}}|v(c)>{{vthresh}},{{vdd}},{{vss}})}"
    Error: undefined symbol in: "if([v](a)>((vthresh))|v(b)>((vthresh))|v(c)>((vthresh)),((vdd)),((vss)))"
Questionable use of curly braces in "b§e_abmgate yint 0 v={if(v(a)>{{vthresh}},{{vdd}},{{vss}})}"
    Error: undefined symbol in: "if([v](a)>((vthresh)),((vdd)),((vss)))"
Direct Newton iteration for .op point succeeded.
Ignoring empty pin current: Ix(u1:fb)
Ignoring empty pin current: Ix(u1:fb)

Date: Sun Aug 16 17:52:12 2020
Total elapsed time: 41.003 seconds.

tnom = 27
temp = 27
method = modified trap
totiter = 1457596
traniter = 1457588
tranpoints = 454600
accept = 337836
rejected = 116764
matrix size = 101
fillins = 44
solver = Normal
Thread vector: 16.4/37.9[1] 9.1/48.8[1] 175.4/131.0[2] 0.8/563.1[1]  2592/500
Matrix Compiler1: 4.62 KB object code size  22.2/2.8/[1.1]
Matrix Compiler2: 7.09 KB object code size  5.1/11.7/[1.1]

