Circuit: * C:\Users\dvone\Desktop\Engineering 3.2\E-Design 344\GitRepo\E344\LTSpice\Voltage Regulators\_LM7805_Linear_Regulator.asc

Direct Newton iteration failed to find .op point.  (Use ".option noopiter" to skip.)
Starting Gmin stepping
Gmin = 10
Gmin = 1.07374
Gmin = 0.115292
Gmin = 0.0123794
Gmin = 0.00132923
Gmin = 0.000142725
Gmin = 1.5325e-005
vernier = 0.5
vernier = 0.25
Gmin = 7.24327e-006
vernier = 0.333333
vernier = 0.444444
Gmin = 2.9399e-006
vernier = 0.592592
vernier = 0.790123
Gmin = 7.24864e-007
vernier = 1
Gmin = 9.23953e-008
Gmin = 9.92087e-009
Gmin = 1.06525e-009
Gmin = 1.1438e-010
Gmin = 1.22814e-011
Gmin = 1.31871e-012
Gmin = 1.41595e-013
Gmin = 0
Gmin stepping succeeded in finding the operating point.


Date: Sun Aug 16 17:58:52 2020
Total elapsed time: 0.170 seconds.

tnom = 27
temp = 27
method = modified trap
totiter = 2865
traniter = 2082
tranpoints = 1042
accept = 1042
rejected = 0
matrix size = 29
fillins = 42
solver = Normal
Matrix Compiler1: 5.66 KB object code size  1.8/0.7/[0.5]
Matrix Compiler2: 3.62 KB object code size  1.1/0.7/[0.5]

